# Output Control for MODPATH7 test problem EXAMPLE_2
HEAD PRINT FORMAT 4
HEAD SAVE UNIT 51
COMPACT BUDGET AUXILIARY
PERIOD 1 STEP 1
  PRINT HEAD
  PRINT BUDGET
  SAVE HEAD
  SAVE BUDGET
  