MODPATH_PATHLINE_FILE         7         0
    2   0.0000000000E+00
END HEADER
         1         1         1        35
      1623  0.46875000E+04  0.52578125E+04  0.10000000E+03  0.00000000E+00  0.00000000E+00  0.12500000E+00  0.50000000E+00         3         1         1
      1623  0.46875000E+04  0.52578125E+04  0.10000000E+03  0.00000000E+00  0.00000000E+00  0.12500000E+00  0.50000000E+00         3         1         1
      1622  0.46585251E+04  0.52500000E+04  0.10002048E+03  0.10956809E+01  0.53640116E+00  0.00000000E+00  0.50010241E+00         3         1         1
      1630  0.46250000E+04  0.52181049E+04  0.10009070E+03  0.49837989E+01  0.00000000E+00  0.48967864E+00  0.50045349E+00         3         1         1
      1629  0.45670034E+04  0.51875000E+04  0.10022200E+03  0.12441578E+02  0.72053914E-01  0.00000000E+00  0.50111001E+00         3         1         1
      1637  0.45625000E+04  0.51833698E+04  0.10023769E+03  0.13350122E+02  0.00000000E+00  0.93391731E+00  0.50118845E+00         3         1         1
      1636  0.45000000E+04  0.51459272E+04  0.10046502E+03  0.26646043E+02  0.00000000E+00  0.33483454E+00  0.50232510E+00         3         1         1
      1591  0.44480031E+04  0.51250000E+04  0.10066867E+03  0.38644793E+02  0.58402452E+00  0.00000000E+00  0.50334333E+00         3         1         1
      1595  0.44375000E+04  0.51189479E+04  0.10072450E+03  0.41984509E+02  0.50000000E+00  0.95158312E+00  0.50362249E+00         3         1         1
      1595  0.43750000E+04  0.50791610E+04  0.10107646E+03  0.62995582E+02  0.00000000E+00  0.63328780E+00  0.50538228E+00         3         1         1
      1594  0.42500000E+04  0.50215168E+04  0.10186787E+03  0.11017641E+03  0.00000000E+00  0.17213425E+00  0.50933935E+00         3         1         1
      1593  0.41932720E+04  0.50000000E+04  0.10226832E+03  0.13394520E+03  0.54617578E+00  0.00000000E+00  0.51134158E+00         3         1         1
      1700  0.41250000E+04  0.49659941E+04  0.10286880E+03  0.16971828E+03  0.00000000E+00  0.72795273E+00  0.51434401E+00         3         1         1
      1699  0.40000000E+04  0.49147923E+04  0.10405932E+03  0.23979618E+03  0.00000000E+00  0.31833821E+00  0.52029659E+00         3         1         1
      1696  0.38855802E+04  0.48750000E+04  0.10528217E+03  0.31065362E+03  0.54232079E+00  0.50000000E+00  0.52641086E+00         3         1         1
      1696  0.38750000E+04  0.48707446E+04  0.10540749E+03  0.31786865E+03  0.50000000E+00  0.48297854E+00  0.52703746E+00         3         1         1
      1696  0.37500000E+04  0.48213970E+04  0.10695334E+03  0.40616877E+03  0.00000000E+00  0.28558804E+00  0.53476669E+00         3         1         1
      1695  0.35179829E+04  0.47500000E+04  0.11024651E+03  0.58805808E+03  0.71931531E-01  0.00000000E+00  0.55123256E+00         3         1         1
      1697  0.35000000E+04  0.47428897E+04  0.11055901E+03  0.60515642E+03  0.00000000E+00  0.97155878E+00  0.55279504E+00         3         1         1
      1694  0.32500000E+04  0.46736724E+04  0.11530576E+03  0.85322623E+03  0.50000000E+00  0.34734480E+00  0.57652879E+00         3         1         1
      1694  0.31122554E+04  0.46344204E+04  0.11820964E+03  0.10000000E+04  0.22451085E+00  0.26884087E+00  0.59104821E+00         3         1         1
      1694  0.30000000E+04  0.45991666E+04  0.12078207E+03  0.11270394E+04  0.00000000E+00  0.19833313E+00  0.60391033E+00         3         1         1
      1693  0.25645789E+04  0.45000000E+04  0.13319655E+03  0.16911346E+04  0.12915776E+00  0.00000000E+00  0.66598275E+00         3         1         1
      1764  0.25000000E+04  0.44800927E+04  0.13565673E+03  0.17972503E+04  0.00000000E+00  0.96018536E+00  0.67828366E+00         3         1         1
      1763  0.23815635E+04  0.44550774E+04  0.14059303E+03  0.20000000E+04  0.76312703E+00  0.91015490E+00  0.70296513E+00         3         1         1
      1763  0.20000000E+04  0.43603429E+04  0.16011508E+03  0.27375757E+04  0.00000000E+00  0.72068579E+00  0.80057538E+00         3         1         1
      1762  0.18808191E+04  0.43357839E+04  0.16782820E+03  0.30000000E+04  0.76163810E+00  0.67156779E+00  0.83914102E+00         3         1         1
      1762  0.15000000E+04  0.42406201E+04  0.19988051E+03  0.39748799E+04  0.00000000E+00  0.48124023E+00  0.99940256E+00         3         1         1
      1761  0.14988630E+04  0.42403703E+04  0.20000000E+03  0.39781726E+04  0.99772593E+00  0.48074065E+00  0.10000000E+01         3         1         1
      1110  0.14988624E+04  0.42403703E+04  0.20079234E+03  0.40000000E+04  0.99772479E+00  0.48074054E+00  0.39616844E-01         2         1         1
      1110  0.14988485E+04  0.42403690E+04  0.22000000E+03  0.45291359E+04  0.99769710E+00  0.48073796E+00  0.10000000E+01         2         1         1
       459  0.14185708E+04  0.42377930E+04  0.23756487E+03  0.50000000E+04  0.83714155E+00  0.47558599E+00  0.14777783E+00         1         1         1
       459  0.12623333E+04  0.42323058E+04  0.27818574E+03  0.60000000E+04  0.52466660E+00  0.46461162E+00  0.48953187E+00         1         1         1
       459  0.11236710E+04  0.42267962E+04  0.32376899E+03  0.70000000E+04  0.24734198E+00  0.45359241E+00  0.87303578E+00         1         1         1
       459  0.10842921E+04  0.42250992E+04  0.33885995E+03  0.73071940E+04  0.16858411E+00  0.45019834E+00  0.10000000E+01         1         1         1
         2         1         2        31
      1623  0.46875000E+04  0.52734375E+04  0.10000000E+03  0.00000000E+00  0.00000000E+00  0.37500000E+00  0.50000000E+00         3         1         1
      1623  0.46875000E+04  0.52734375E+04  0.10000000E+03  0.00000000E+00  0.00000000E+00  0.37500000E+00  0.50000000E+00         3         1         1
      1622  0.46250000E+04  0.52642768E+04  0.10005518E+03  0.29511730E+01  0.00000000E+00  0.22842939E+00  0.50027588E+00         3         1         1
      1621  0.45625000E+04  0.52529780E+04  0.10015651E+03  0.86395929E+01  0.00000000E+00  0.47647828E-01  0.50078257E+00         3         1         1
      1620  0.45422651E+04  0.52500000E+04  0.10020035E+03  0.11163351E+02  0.67624148E+00  0.00000000E+00  0.50100174E+00         3         1         1
      1628  0.45000000E+04  0.52403993E+04  0.10032382E+03  0.18305870E+02  0.00000000E+00  0.84638949E+00  0.50161911E+00         3         1         1
      1591  0.44375000E+04  0.52312664E+04  0.10053927E+03  0.31016894E+02  0.50000000E+00  0.85013125E+00  0.50269633E+00         3         1         1
      1591  0.43750000E+04  0.52188676E+04  0.10080402E+03  0.46599756E+02  0.00000000E+00  0.75094109E+00  0.50402009E+00         3         1         1
      1590  0.42500000E+04  0.51999562E+04  0.10145878E+03  0.85404709E+02  0.00000000E+00  0.59964983E+00  0.50729388E+00         3         1         1
      1589  0.41250000E+04  0.51821845E+04  0.10227706E+03  0.13379327E+03  0.00000000E+00  0.45747618E+00  0.51138528E+00         3         1         1
      1588  0.40000000E+04  0.51653565E+04  0.10326321E+03  0.19166247E+03  0.00000000E+00  0.32285188E+00  0.51631605E+00         3         1         1
      1579  0.38750000E+04  0.51505065E+04  0.10442024E+03  0.25874101E+03  0.50000000E+00  0.60202613E+00  0.52210120E+00         3         1         1
      1579  0.37500000E+04  0.51333219E+04  0.10575848E+03  0.33540444E+03  0.00000000E+00  0.53328748E+00  0.52879240E+00         3         1         1
      1578  0.35000000E+04  0.51058590E+04  0.10900674E+03  0.51603004E+03  0.00000000E+00  0.42343616E+00  0.54503368E+00         3         1         1
      1575  0.32500000E+04  0.50853543E+04  0.11304863E+03  0.72988599E+03  0.50000000E+00  0.17070851E+00  0.56524315E+00         3         1         1
      1575  0.30000000E+04  0.50588071E+04  0.11794906E+03  0.97913957E+03  0.00000000E+00  0.11761415E+00  0.58974529E+00         3         1         1
      1574  0.29808607E+04  0.50574780E+04  0.11837761E+03  0.10000000E+04  0.96172145E+00  0.11495607E+00  0.59188807E+00         3         1         1
      1574  0.25000000E+04  0.50156555E+04  0.13142444E+03  0.16013575E+04  0.00000000E+00  0.31310950E-01  0.65712218E+00         3         1         1
      1573  0.22869527E+04  0.50000000E+04  0.13917916E+03  0.19250227E+04  0.57390542E+00  0.00000000E+00  0.69589579E+00         3         1         1
      1692  0.22426593E+04  0.49962528E+04  0.14103727E+03  0.20000000E+04  0.48531868E+00  0.99250564E+00  0.70518633E+00         3         1         1
      1692  0.20000000E+04  0.49731231E+04  0.15261284E+03  0.24459473E+04  0.00000000E+00  0.94624616E+00  0.76306418E+00         3         1         1
      1691  0.17400204E+04  0.49523773E+04  0.16858710E+03  0.30000000E+04  0.48004073E+00  0.90475465E+00  0.84293549E+00         3         1         1
      1691  0.15000000E+04  0.49285606E+04  0.18780126E+03  0.36007122E+04  0.00000000E+00  0.85712111E+00  0.93900628E+00         3         1         1
      1690  0.13783769E+04  0.49179818E+04  0.20000000E+03  0.39469282E+04  0.75675379E+00  0.83596369E+00  0.10000000E+01         3         1         1
      1039  0.13783756E+04  0.49179818E+04  0.20192942E+03  0.40000000E+04  0.75675119E+00  0.83596358E+00  0.96470893E-01         2         1         1
      1039  0.13783634E+04  0.49179813E+04  0.22000000E+03  0.44970614E+04  0.75672677E+00  0.83596258E+00  0.10000000E+01         2         1         1
       388  0.12994945E+04  0.49168260E+04  0.23882257E+03  0.50000000E+04  0.59898899E+00  0.83365199E+00  0.15836514E+00         1         1         1
       388  0.11561211E+04  0.49145202E+04  0.27963654E+03  0.60000000E+04  0.31224218E+00  0.82904032E+00  0.50175653E+00         1         1         1
       388  0.10289421E+04  0.49122026E+04  0.32541558E+03  0.70000000E+04  0.57884139E-01  0.82440528E+00  0.88692193E+00         1         1         1
       388  0.10000000E+04  0.49116323E+04  0.33747309E+03  0.72453411E+04  0.00000000E+00  0.82326453E+00  0.98836876E+00         1         1         1
       387  0.99678629E+03  0.49115739E+04  0.33897174E+03  0.72730600E+04  0.99357259E+00  0.82314782E+00  0.10000000E+01         1         1         1
         3         1         3        31
      1623  0.46875000E+04  0.52890625E+04  0.10000000E+03  0.00000000E+00  0.00000000E+00  0.62500000E+00  0.50000000E+00         3         1         1
      1623  0.46875000E+04  0.52890625E+04  0.10000000E+03  0.00000000E+00  0.00000000E+00  0.62500000E+00  0.50000000E+00         3         1         1
      1622  0.46250000E+04  0.52981622E+04  0.10005518E+03  0.29511730E+01  0.00000000E+00  0.77059583E+00  0.50027588E+00         3         1         1
      1621  0.45625000E+04  0.53093292E+04  0.10015651E+03  0.86395929E+01  0.00000000E+00  0.94926763E+00  0.50078257E+00         3         1         1
      1620  0.45406077E+04  0.53125000E+04  0.10020414E+03  0.11381665E+02  0.64972346E+00  0.10000000E+01  0.50102071E+00         3         1         1
      1612  0.45000000E+04  0.53216517E+04  0.10032381E+03  0.18303264E+02  0.00000000E+00  0.14642789E+00  0.50161903E+00         3         1         1
      1587  0.44375000E+04  0.53310286E+04  0.10053440E+03  0.30673400E+02  0.50000000E+00  0.64822854E+00  0.50267200E+00         3         1         1
      1587  0.43750000E+04  0.53425364E+04  0.10078350E+03  0.45271980E+02  0.00000000E+00  0.74029112E+00  0.50391751E+00         3         1         1
      1586  0.42500000E+04  0.53608919E+04  0.10140678E+03  0.82143433E+02  0.00000000E+00  0.88713484E+00  0.50703391E+00         3         1         1
      1585  0.41456918E+04  0.53750000E+04  0.10205866E+03  0.12069398E+03  0.16553414E+00  0.10000000E+01  0.51029328E+00         3         1         1
      1581  0.41250000E+04  0.53786499E+04  0.10221188E+03  0.12975223E+03  0.00000000E+00  0.29199560E-01  0.51105938E+00         3         1         1
      1580  0.40000000E+04  0.53958497E+04  0.10322935E+03  0.18958076E+03  0.00000000E+00  0.16679766E+00  0.51614676E+00         3         1         1
      1577  0.38750000E+04  0.54099236E+04  0.10440054E+03  0.25743418E+03  0.50000000E+00  0.63969426E+00  0.52200270E+00         3         1         1
      1577  0.37500000E+04  0.54262171E+04  0.10572742E+03  0.33339411E+03  0.00000000E+00  0.70486840E+00  0.52863712E+00         3         1         1
      1576  0.35000000E+04  0.54526188E+04  0.10893985E+03  0.51201086E+03  0.00000000E+00  0.81047531E+00  0.54469927E+00         3         1         1
      1575  0.32500000E+04  0.54715977E+04  0.11295629E+03  0.72467227E+03  0.50000000E+00  0.94319531E+00  0.56478147E+00         3         1         1
      1575  0.30000000E+04  0.54966941E+04  0.11784636E+03  0.97360883E+03  0.00000000E+00  0.99338819E+00  0.58923179E+00         3         1         1
      1574  0.29758165E+04  0.54982356E+04  0.11838833E+03  0.10000000E+04  0.95163298E+00  0.99647125E+00  0.59194163E+00         3         1         1
      1574  0.29487005E+04  0.55000000E+04  0.11900682E+03  0.10299705E+04  0.89740092E+00  0.10000000E+01  0.59503411E+00         3         1         1
      1503  0.25000000E+04  0.55374329E+04  0.13187814E+03  0.16217535E+04  0.00000000E+00  0.74865884E-01  0.65939068E+00         3         1         1
      1502  0.22607726E+04  0.55533094E+04  0.14100651E+03  0.20000000E+04  0.52154526E+00  0.10661874E+00  0.70503257E+00         3         1         1
      1502  0.20000000E+04  0.55744624E+04  0.15332213E+03  0.24732338E+04  0.00000000E+00  0.14892487E+00  0.76661067E+00         3         1         1
      1501  0.17504214E+04  0.55908896E+04  0.16854596E+03  0.30000000E+04  0.50084281E+00  0.18177927E+00  0.84272979E+00         3         1         1
      1501  0.15000000E+04  0.56114255E+04  0.18844793E+03  0.36210602E+04  0.00000000E+00  0.22285104E+00  0.94223963E+00         3         1         1
      1500  0.13841919E+04  0.56194514E+04  0.20000000E+03  0.39483104E+04  0.76838387E+00  0.23890283E+00  0.10000000E+01         3         1         1
       849  0.13841907E+04  0.56194515E+04  0.20187948E+03  0.40000000E+04  0.76838131E+00  0.23890291E+00  0.93974133E-01         2         1         1
       849  0.13841783E+04  0.56194518E+04  0.22000000E+03  0.44983510E+04  0.76835668E+00  0.23890368E+00  0.10000000E+01         2         1         1
       198  0.13051407E+04  0.56201838E+04  0.23877583E+03  0.50000000E+04  0.61028140E+00  0.24036763E+00  0.15797322E+00         1         1         1
       198  0.11610846E+04  0.56216486E+04  0.27958854E+03  0.60000000E+04  0.32216923E+00  0.24329721E+00  0.50135706E+00         1         1         1
       198  0.10333056E+04  0.56231210E+04  0.32536386E+03  0.70000000E+04  0.66611276E-01  0.24624192E+00  0.88649453E+00         1         1         1
       198  0.10008776E+04  0.56235258E+04  0.33885449E+03  0.72740779E+04  0.17551839E-02  0.24705165E+00  0.10000000E+01         1         1         1
         4         1         4        35
      1623  0.46875000E+04  0.53046875E+04  0.10000000E+03  0.00000000E+00  0.00000000E+00  0.87500000E+00  0.50000000E+00         3         1         1
      1623  0.46875000E+04  0.53046875E+04  0.10000000E+03  0.00000000E+00  0.00000000E+00  0.87500000E+00  0.50000000E+00         3         1         1
      1622  0.46584767E+04  0.53125000E+04  0.10002052E+03  0.10978008E+01  0.53562723E+00  0.10000000E+01  0.50010261E+00         3         1         1
      1614  0.46250000E+04  0.53442911E+04  0.10009063E+03  0.49798083E+01  0.00000000E+00  0.50865697E+00  0.50045315E+00         3         1         1
      1613  0.45667508E+04  0.53750000E+04  0.10022263E+03  0.12476646E+02  0.68012275E-01  0.10000000E+01  0.50111314E+00         3         1         1
      1605  0.45625000E+04  0.53788850E+04  0.10023740E+03  0.13331945E+02  0.00000000E+00  0.62159693E-01  0.50118699E+00         3         1         1
      1604  0.45000000E+04  0.54161120E+04  0.10046323E+03  0.26540652E+02  0.00000000E+00  0.65779242E+00  0.50231616E+00         3         1         1
      1583  0.44525650E+04  0.54375000E+04  0.10065291E+03  0.37800387E+02  0.62051993E+00  0.50000000E+00  0.50326456E+00         3         1         1
      1583  0.44375000E+04  0.54461852E+04  0.10072513E+03  0.42081965E+02  0.50000000E+00  0.56948170E+00  0.50362566E+00         3         1         1
      1583  0.43750000E+04  0.54811117E+04  0.10103730E+03  0.60553624E+02  0.00000000E+00  0.84889322E+00  0.50518650E+00         3         1         1
      1582  0.43251976E+04  0.55000000E+04  0.10130423E+03  0.76430061E+02  0.60158099E+00  0.10000000E+01  0.50652114E+00         3         1         1
      1523  0.42500000E+04  0.55413168E+04  0.10184974E+03  0.10911667E+03  0.00000000E+00  0.33053470E+00  0.50924871E+00         3         1         1
      1522  0.41250000E+04  0.55953209E+04  0.10284289E+03  0.16814191E+03  0.00000000E+00  0.76256759E+00  0.51421443E+00         3         1         1
      1521  0.40449386E+04  0.56250000E+04  0.10354637E+03  0.20952434E+03  0.35950917E+00  0.10000000E+01  0.51773184E+00         3         1         1
      1517  0.40000000E+04  0.56456642E+04  0.10401529E+03  0.23713834E+03  0.00000000E+00  0.16531382E+00  0.52007644E+00         3         1         1
      1508  0.38750000E+04  0.56891112E+04  0.10539379E+03  0.31680190E+03  0.50000000E+00  0.75644477E+00  0.52696895E+00         3         1         1
      1508  0.37500000E+04  0.57357252E+04  0.10688191E+03  0.40163906E+03  0.00000000E+00  0.94290082E+00  0.53440954E+00         3         1         1
      1507  0.36970291E+04  0.57500000E+04  0.10756325E+03  0.43969598E+03  0.78811621E+00  0.10000000E+01  0.53781626E+00         3         1         1
      1505  0.35000000E+04  0.58183804E+04  0.11071345E+03  0.61371727E+03  0.00000000E+00  0.27352147E+00  0.55356724E+00         3         1         1
      1504  0.32500000E+04  0.58821217E+04  0.11534733E+03  0.85543183E+03  0.50000000E+00  0.76424344E+00  0.57673663E+00         3         1         1
      1504  0.31115966E+04  0.59198872E+04  0.11821100E+03  0.10000000E+04  0.22319319E+00  0.83977448E+00  0.59105501E+00         3         1         1
      1504  0.30000000E+04  0.59537029E+04  0.12072898E+03  0.11242517E+04  0.00000000E+00  0.90740570E+00  0.60364491E+00         3         1         1
      1503  0.27710700E+04  0.60000000E+04  0.12668256E+03  0.14016313E+04  0.54214000E+00  0.10000000E+01  0.63341279E+00         3         1         1
      1468  0.25000000E+04  0.60738930E+04  0.13618229E+03  0.18205109E+04  0.00000000E+00  0.14778597E+00  0.68091147E+00         3         1         1
      1467  0.23932951E+04  0.60948734E+04  0.14056280E+03  0.20000000E+04  0.78659024E+00  0.18974680E+00  0.70281401E+00         3         1         1
      1467  0.20000000E+04  0.61861956E+04  0.16039577E+03  0.27482870E+04  0.00000000E+00  0.37239116E+00  0.80197886E+00         3         1         1
      1466  0.18842710E+04  0.62083428E+04  0.16780303E+03  0.30000000E+04  0.76854207E+00  0.41668555E+00  0.83901514E+00         3         1         1
      1466  0.15000000E+04  0.62978115E+04  0.19978671E+03  0.39726939E+04  0.00000000E+00  0.59562304E+00  0.99893356E+00         3         1         1
      1465  0.14979522E+04  0.62982262E+04  0.20000000E+03  0.39785709E+04  0.99590434E+00  0.59645246E+00  0.10000000E+01         3         1         1
       814  0.14979516E+04  0.62982263E+04  0.20077812E+03  0.40000000E+04  0.99590322E+00  0.59645256E+00  0.38906171E-01         2         1         1
       814  0.14979377E+04  0.62982275E+04  0.22000000E+03  0.45293609E+04  0.99587543E+00  0.59645492E+00  0.10000000E+01         2         1         1
       163  0.14177001E+04  0.63004338E+04  0.23756137E+03  0.50000000E+04  0.83540029E+00  0.60086764E+00  0.14775099E+00         1         1         1
       163  0.12614727E+04  0.63051365E+04  0.27819022E+03  0.60000000E+04  0.52294548E+00  0.61027299E+00  0.48957804E+00         1         1         1
       163  0.11228298E+04  0.63098592E+04  0.32377814E+03  0.70000000E+04  0.24565968E+00  0.61971837E+00  0.87312778E+00         1         1         1
       163  0.10834881E+04  0.63113129E+04  0.33885791E+03  0.73069575E+04  0.16697629E+00  0.62262576E+00  0.10000000E+01         1         1         1
         5         1         5        43
      1623  0.47500000E+04  0.52578125E+04  0.10000000E+03  0.00000000E+00  0.10000000E+01  0.12500000E+00  0.50000000E+00         3         1         1
      1623  0.47500000E+04  0.52578125E+04  0.10000000E+03  0.00000000E+00  0.10000000E+01  0.12500000E+00  0.50000000E+00         3         1         1
      1624  0.47781580E+04  0.52500000E+04  0.10002011E+03  0.10960665E+01  0.45052812E+00  0.00000000E+00  0.50010057E+00         3         1         1
      1632  0.48125000E+04  0.52136763E+04  0.10009860E+03  0.55256990E+01  0.10000000E+01  0.41882031E+00  0.50049300E+00         3         1         1
      1633  0.48571924E+04  0.51875000E+04  0.10020505E+03  0.11816267E+02  0.71507908E+00  0.00000000E+00  0.50102524E+00         3         1         1
      1641  0.48750000E+04  0.51677197E+04  0.10027736E+03  0.16176302E+02  0.10000000E+01  0.68351539E+00  0.50138679E+00         3         1         1
      1642  0.49310252E+04  0.51250000E+04  0.10051088E+03  0.30701198E+02  0.89640384E+00  0.00000000E+00  0.50255442E+00         3         1         1
      1650  0.49375000E+04  0.51174099E+04  0.10054959E+03  0.33141900E+02  0.10000000E+01  0.87855912E+00  0.50274795E+00         3         1         1
      1651  0.49992747E+04  0.50625000E+04  0.10092305E+03  0.57291608E+02  0.98839546E+00  0.00000000E+00  0.50461526E+00         3         1         1
      1659  0.50000000E+04  0.50615981E+04  0.10092892E+03  0.57674852E+02  0.10000000E+01  0.98556929E+00  0.50464460E+00         3         1         1
      1672  0.50625000E+04  0.50057089E+04  0.10141749E+03  0.90563842E+02  0.50000000E+00  0.45671122E-01  0.50708743E+00         3         1         1
      1672  0.50689601E+04  0.50000000E+04  0.10146808E+03  0.93960934E+02  0.55168109E+00  0.00000000E+00  0.50734042E+00         3         1         1
      1731  0.51250000E+04  0.49225287E+04  0.10214365E+03  0.13996068E+03  0.10000000E+01  0.38022999E+00  0.51071823E+00         3         1         1
      1732  0.51714794E+04  0.48750000E+04  0.10269485E+03  0.17902251E+03  0.37183514E+00  0.00000000E+00  0.51347427E+00         3         1         1
      1736  0.52489755E+04  0.47500000E+04  0.10411508E+03  0.28007877E+03  0.99180415E+00  0.00000000E+00  0.52057538E+00         3         1         1
      1740  0.52500000E+04  0.47474987E+04  0.10414338E+03  0.28210637E+03  0.10000000E+01  0.97998948E+00  0.52071691E+00         3         1         1
      1741  0.53132271E+04  0.46250000E+04  0.10584037E+03  0.40788356E+03  0.50581682E+00  0.00000000E+00  0.52920185E+00         3         1         1
      1745  0.53548560E+04  0.45000000E+04  0.10761678E+03  0.53886643E+03  0.83884763E+00  0.00000000E+00  0.53808392E+00         3         1         1
      1779  0.53750000E+04  0.43859571E+04  0.10931509E+03  0.66662214E+03  0.50000000E+00  0.54382832E+00  0.54657543E+00         3         1         1
      1779  0.53772334E+04  0.43750000E+04  0.10949759E+03  0.68023307E+03  0.50893358E+00  0.50000000E+00  0.54748797E+00         3         1         1
      1779  0.53977234E+04  0.42500000E+04  0.11163482E+03  0.83795484E+03  0.59089375E+00  0.00000000E+00  0.55817411E+00         3         1         1
      1781  0.53885084E+04  0.41274940E+04  0.11383283E+03  0.10000000E+04  0.55403379E+00  0.50997593E+00  0.56916414E+00         3         1         1
      1781  0.53777950E+04  0.40000000E+04  0.11632633E+03  0.11800843E+04  0.51118016E+00  0.00000000E+00  0.58163165E+00         3         1         1
      1804  0.52971481E+04  0.37500000E+04  0.12187795E+03  0.15612819E+04  0.59429616E+00  0.50000000E+00  0.60938976E+00         3         1         1
      1804  0.52500000E+04  0.36319197E+04  0.12480340E+03  0.17552265E+04  0.50000000E+00  0.26383941E+00  0.62401701E+00         3         1         1
      1804  0.51908687E+04  0.35000000E+04  0.12835862E+03  0.19848926E+04  0.38173735E+00  0.00000000E+00  0.64179308E+00         3         1         1
      1824  0.51854851E+04  0.34917739E+04  0.12859026E+03  0.20000000E+04  0.37097029E+00  0.98354781E+00  0.64295131E+00         3         1         1
      1824  0.50000000E+04  0.32375717E+04  0.13650286E+03  0.25003371E+04  0.00000000E+00  0.47514336E+00  0.68251430E+00         3         1         1
      1823  0.47981265E+04  0.30000000E+04  0.14600383E+03  0.29996396E+04  0.59625304E+00  0.00000000E+00  0.73001915E+00         3         1         1
      1843  0.47979707E+04  0.29998422E+04  0.14601080E+03  0.30000000E+04  0.59594146E+00  0.99968443E+00  0.73005401E+00         3         1         1
      1843  0.45000000E+04  0.27286158E+04  0.15951579E+03  0.36677405E+04  0.00000000E+00  0.45723166E+00  0.79757897E+00         3         1         1
      1842  0.43454036E+04  0.26130012E+04  0.16738229E+03  0.40000000E+04  0.69080720E+00  0.22600246E+00  0.83691144E+00         3         1         1
      1842  0.41798101E+04  0.25000000E+04  0.17604912E+03  0.43484476E+04  0.35962023E+00  0.00000000E+00  0.88024562E+00         3         1         1
      1862  0.40000000E+04  0.23806998E+04  0.18626973E+03  0.47421982E+04  0.00000000E+00  0.76139956E+00  0.93134864E+00         3         1         1
      1861  0.38821264E+04  0.23139499E+04  0.19378614E+03  0.50000000E+04  0.76425285E+00  0.62789972E+00  0.96893068E+00         3         1         1
      1861  0.37884896E+04  0.22623315E+04  0.20000000E+03  0.52056856E+04  0.57697914E+00  0.52466296E+00  0.10000000E+01         3         1         1
      1210  0.37884504E+04  0.22623266E+04  0.22000000E+03  0.58573687E+04  0.57690085E+00  0.52465312E+00  0.10000000E+01         2         1         1
       559  0.37197854E+04  0.22603886E+04  0.22442914E+03  0.60000000E+04  0.43957086E+00  0.52077720E+00  0.37731656E-01         1         1         1
       559  0.35000000E+04  0.22538789E+04  0.24011327E+03  0.64797571E+04  0.00000000E+00  0.50775782E+00  0.17134423E+00         1         1         1
       558  0.32800406E+04  0.22474270E+04  0.25931551E+03  0.70000000E+04  0.56008122E+00  0.49485392E+00  0.33367692E+00         1         1         1
       558  0.30000000E+04  0.22384515E+04  0.28860438E+03  0.77253914E+04  0.00000000E+00  0.47690304E+00  0.58225625E+00         1         1         1
       557  0.29016670E+04  0.22354122E+04  0.30089637E+03  0.80000000E+04  0.80333403E+00  0.47082439E+00  0.68445783E+00         1         1         1
       557  0.26392154E+04  0.22267121E+04  0.33819043E+03  0.87873285E+04  0.27843075E+00  0.45342421E+00  0.10000000E+01         1         1         1
         6         1         6        44
      1623  0.47500000E+04  0.52734375E+04  0.10000000E+03  0.00000000E+00  0.10000000E+01  0.37500000E+00  0.50000000E+00         3         1         1
      1623  0.47500000E+04  0.52734375E+04  0.10000000E+03  0.00000000E+00  0.10000000E+01  0.37500000E+00  0.50000000E+00         3         1         1
      1624  0.48125000E+04  0.52636824E+04  0.10005661E+03  0.30839465E+01  0.10000000E+01  0.21891826E+00  0.50028303E+00         3         1         1
      1625  0.48750000E+04  0.52507172E+04  0.10016252E+03  0.92662951E+01  0.10000000E+01  0.11474526E-01  0.50081259E+00         3         1         1
      1626  0.48794639E+04  0.52500000E+04  0.10017226E+03  0.98627409E+01  0.71422788E-01  0.00000000E+00  0.50086131E+00         3         1         1
      1634  0.49375000E+04  0.52345898E+04  0.10035347E+03  0.21007200E+02  0.10000000E+01  0.75343635E+00  0.50176735E+00         3         1         1
      1635  0.50000000E+04  0.52189343E+04  0.10059528E+03  0.36390253E+02  0.10000000E+01  0.50294850E+00  0.50297639E+00         3         1         1
      1668  0.50625000E+04  0.52044378E+04  0.10088606E+03  0.55784298E+02  0.50000000E+00  0.63550241E+00  0.50443028E+00         3         1         1
      1668  0.51176668E+04  0.51875000E+04  0.10120243E+03  0.76822356E+02  0.94133468E+00  0.50000000E+00  0.50601217E+00         3         1         1
      1668  0.51250000E+04  0.51846980E+04  0.10124971E+03  0.79960163E+02  0.10000000E+01  0.47758417E+00  0.50624853E+00         3         1         1
      1669  0.52500000E+04  0.51486788E+04  0.10214966E+03  0.14287368E+03  0.10000000E+01  0.18943011E+00  0.51074829E+00         3         1         1
      1670  0.53293621E+04  0.51250000E+04  0.10284450E+03  0.19374268E+03  0.63489700E+00  0.00000000E+00  0.51422252E+00         3         1         1
      1674  0.53750000E+04  0.51047004E+04  0.10337206E+03  0.23235511E+03  0.10000000E+01  0.83760301E+00  0.51686028E+00         3         1         1
      1675  0.55000000E+04  0.50515988E+04  0.10499516E+03  0.35618631E+03  0.10000000E+01  0.41279026E+00  0.52497578E+00         3         1         1
      1678  0.56250000E+04  0.50003509E+04  0.10685650E+03  0.50730822E+03  0.50000000E+00  0.14037645E-02  0.53428249E+00         3         1         1
      1678  0.56257299E+04  0.50000000E+04  0.10686844E+03  0.50826914E+03  0.50291947E+00  0.00000000E+00  0.53434219E+00         3         1         1
      1747  0.57500000E+04  0.49040316E+04  0.10980540E+03  0.74358749E+03  0.10000000E+01  0.61612626E+00  0.54902699E+00         3         1         1