MODPATH_TIMESERIES_FILE         7         0
    2   0.0000000000E+00
END HEADER
       0       1  0.0000000000E+00         1    1         1      1623  0.0000000000E+00  0.1250000000E+00  0.5000000000E+00  0.4687500000E+04  0.5257812500E+04  0.1000000000E+03         3
       0       1  0.0000000000E+00         2    1         2      1623  0.0000000000E+00  0.3750000000E+00  0.5000000000E+00  0.4687500000E+04  0.5273437500E+04  0.1000000000E+03         3
       0       1  0.0000000000E+00         3    1         3      1623  0.0000000000E+00  0.6250000000E+00  0.5000000000E+00  0.4687500000E+04  0.5289062500E+04  0.1000000000E+03         3
       0       1  0.0000000000E+00         4    1         4      1623  0.0000000000E+00  0.8750000000E+00  0.5000000000E+00  0.4687500000E+04  0.5304687500E+04  0.1000000000E+03         3
       0       1  0.0000000000E+00         5    1         5      1623  0.1000000000E+01  0.1250000000E+00  0.5000000000E+00  0.4750000000E+04  0.5257812500E+04  0.1000000000E+03         3
       0       1  0.0000000000E+00         6    1         6      1623  0.1000000000E+01  0.3750000000E+00  0.5000000000E+00  0.4750000000E+04  0.5273437500E+04  0.1000000000E+03         3
       0       1  0.0000000000E+00         7    1         7      1623  0.1000000000E+01  0.6250000000E+00  0.5000000000E+00  0.4750000000E+04  0.5289062500E+04  0.1000000000E+03         3
       0       1  0.0000000000E+00         8    1         8      1623  0.1000000000E+01  0.8750000000E+00  0.5000000000E+00  0.4750000000E+04  0.5304687500E+04  0.1000000000E+03         3
       0       1  0.0000000000E+00         9    1         9      1623  0.1250000000E+00  0.0000000000E+00  0.5000000000E+00  0.4695312500E+04  0.5250000000E+04  0.1000000000E+03         3
       0       1  0.0000000000E+00        10    1        10      1623  0.3750000000E+00  0.0000000000E+00  0.5000000000E+00  0.4710937500E+04  0.5250000000E+04  0.1000000000E+03         3
       0       1  0.0000000000E+00        11    1        11      1623  0.6250000000E+00  0.0000000000E+00  0.5000000000E+00  0.4726562500E+04  0.5250000000E+04  0.1000000000E+03         3
       0       1  0.0000000000E+00        12    1        12      1623  0.8750000000E+00  0.0000000000E+00  0.5000000000E+00  0.4742187500E+04  0.5250000000E+04  0.1000000000E+03         3
       0       1  0.0000000000E+00        13    1        13      1623  0.1250000000E+00  0.1000000000E+01  0.5000000000E+00  0.4695312500E+04  0.5312500000E+04  0.1000000000E+03         3
       0       1  0.0000000000E+00        14    1        14      1623  0.3750000000E+00  0.1000000000E+01  0.5000000000E+00  0.4710937500E+04  0.5312500000E+04  0.1000000000E+03         3
       0       1  0.0000000000E+00        15    1        15      1623  0.6250000000E+00  0.1000000000E+01  0.5000000000E+00  0.4726562500E+04  0.5312500000E+04  0.1000000000E+03         3
       0       1  0.0000000000E+00        16    1        16      1623  0.8750000000E+00  0.1000000000E+01  0.5000000000E+00  0.4742187500E+04  0.5312500000E+04  0.1000000000E+03         3
       1       1  0.1000000000E+04         1    1         1      1694  0.2245108535E+00  0.2688408658E+00  0.5910482127E+00  0.3112255427E+04  0.4634420433E+04  0.1182096425E+03         3
       1       1  0.1000000000E+04         2    1         2      1574  0.9617214477E+00  0.1149560722E+00  0.5918880702E+00  0.2980860724E+04  0.5057478036E+04  0.1183776140E+03         3
       1       1  0.1000000000E+04         3    1         3      1574  0.9516329767E+00  0.9964712502E+00  0.5919416310E+00  0.2975816488E+04  0.5498235625E+04  0.1183883262E+03         3
       1       1  0.1000000000E+04         4    1         4      1504  0.2231931941E+00  0.8397744822E+00  0.5910550050E+00  0.3111596597E+04  0.5919887241E+04  0.1182110010E+03         3
       1       1  0.1000000000E+04         5    1         5      1781  0.5540337868E+00  0.5099759305E+00  0.5691641444E+00  0.5388508447E+04  0.4127493983E+04  0.1138328289E+03         3
       1       1  0.1000000000E+04         6    1         6      1748  0.4395320116E+00  0.2972591991E+00  0.5636724142E+00  0.5859883003E+04  0.4824314800E+04  0.1127344828E+03         3
       1       1  0.1000000000E+04         7    1         7      1560  0.4782762520E+00  0.9189154306E+00  0.5636925599E+00  0.5869569063E+04  0.5729728858E+04  0.1127385120E+03         3
       1       1  0.1000000000E+04         8    1         8      1483  0.5710572707E+00  0.7058006156E+00  0.5691367169E+00  0.5392764318E+04  0.6426450154E+04  0.1138273434E+03         3
       1       1  0.1000000000E+04         9    1         9      1765  0.7275947055E+00  0.5321523495E+00  0.5889814157E+00  0.3363797353E+04  0.4266076175E+04  0.1177962831E+03         3
       1       1  0.1000000000E+04        10    1        10      1801  0.4414721338E+00  0.9357644693E+00  0.5856218166E+00  0.3720736067E+04  0.3967882235E+04  0.1171243633E+03         3
       1       1  0.1000000000E+04        11    1        11      1802  0.3831369354E+00  0.5840691454E+00  0.5813586908E+00  0.4191568468E+04  0.3792034573E+04  0.1162717382E+03         3
       1       1  0.1000000000E+04        12    1        12      1803  0.5281537771E+00  0.6228390190E+00  0.5761243753E+00  0.4764076889E+04  0.3811419509E+04  0.1152248751E+03         3
       1       1  0.1000000000E+04        13    1        13      1469  0.7296622552E+00  0.5818758449E+00  0.5890241608E+00  0.3364831128E+04  0.6290937922E+04  0.1178048322E+03         3
       1       1  0.1000000000E+04        14    1        14      1450  0.4458597611E+00  0.1843150349E+00  0.5856647082E+00  0.3722929881E+04  0.6592157517E+04  0.1171329416E+03         3
       1       1  0.1000000000E+04        15    1        15      1451  0.3794836213E+00  0.5380946520E+00  0.5815337358E+00  0.4189741811E+04  0.6769047326E+04  0.1163067472E+03         3
       1       1  0.1000000000E+04        16    1        16      1452  0.5270345593E+00  0.5037847449E+00  0.5763499030E+00  0.4763517280E+04  0.6751892372E+04  0.1152699806E+03         3
       2       1  0.2000000000E+04         1    1         1      1763  0.7631270259E+00  0.9101548966E+00  0.7029651271E+00  0.2381563513E+04  0.4455077448E+04  0.1405930254E+03         3
       2       1  0.2000000000E+04         2    1         2      1692  0.4853186762E+00  0.9925056419E+00  0.7051863257E+00  0.2242659338E+04  0.4996252821E+04  0.1410372651E+03         3
       2       1  0.2000000000E+04         3    1         3      1502  0.5215452592E+00  0.1066187408E+00  0.7050325679E+00  0.2260772630E+04  0.5553309370E+04  0.1410065136E+03         3
       2       1  0.2000000000E+04         4    1         4      1467  0.7865902419E+00  0.1897468046E+00  0.7028140078E+00  0.2393295121E+04  0.6094873402E+04  0.1405628016E+03         3
       2       1  0.2000000000E+04         5    1         5      1824  0.3709702902E+00  0.9835478122E+00  0.6429513073E+00  0.5185485145E+04  0.3491773906E+04  0.1285902615E+03         3
       2       1  0.2000000000E+04         6    1         6      1786  0.1606063262E+00  0.9849917659E+00  0.6186362233E+00  0.6080303163E+04  0.4492495883E+04  0.1237272447E+03         3
       2       1  0.2000000000E+04         7    1         7      1490  0.1599524196E+00  0.9627892567E-01  0.6182754424E+00  0.6079976210E+04  0.6048139463E+04  0.1236550885E+03         3
       2       1  0.2000000000E+04         8    1         8      1433  0.3780288682E+00  0.1258795402E+00  0.6431355564E+00  0.5189014434E+04  0.7062939770E+04  0.1286271113E+03         3
       2       1  0.2000000000E+04         9    1         9      1799  0.2899159584E+00  0.9488167790E+00  0.6982210304E+00  0.2644957979E+04  0.3974408389E+04  0.1396442061E+03         3
       2       1  0.2000000000E+04        10    1        10      1800  0.1145701536E+00  0.1580215900E+00  0.6897752982E+00  0.3057285077E+04  0.3579010795E+04  0.1379550596E+03         3
       2       1  0.2000000000E+04        11    1        11      1821  0.1684825785E+00  0.5916458014E+00  0.6789780027E+00  0.3584241289E+04  0.3295822901E+04  0.1357956005E+03         3
       2       1  0.2000000000E+04        12    1        12      1822  0.5718050489E+00  0.4294426003E+00  0.6637302640E+00  0.4285902524E+04  0.3214721300E+04  0.1327460528E+03         3
       2       1  0.2000000000E+04        13    1        13      1448  0.3098790887E+00  0.1519876824E+00  0.6982526769E+00  0.2654939544E+04  0.6575993841E+04  0.1396505354E+03         3
       2       1  0.2000000000E+04        14    1        14      1449  0.8499438706E-01  0.9567401395E+00  0.6900571741E+00  0.3042497194E+04  0.6978370070E+04  0.1380114348E+03         3
       2       1  0.2000000000E+04        15    1        15      1430  0.1676354473E+00  0.5213179675E+00  0.6792815690E+00  0.3583817724E+04  0.7260658984E+04  0.1358563138E+03         3
       2       1  0.2000000000E+04        16    1        16      1431  0.5687501156E+00  0.6905478576E+00  0.6640495377E+00  0.4284375058E+04  0.7345273929E+04  0.1328099075E+03         3
       3       1  0.3000000000E+04         1    1         1      1762  0.7616381037E+00  0.6715677859E+00  0.8391410164E+00  0.1880819052E+04  0.4335783893E+04  0.1678282033E+03         3
       3       1  0.3000000000E+04         2    1         2      1691  0.4800407302E+00  0.9047546460E+00  0.8429354891E+00  0.1740020365E+04  0.4952377323E+04  0.1685870978E+03         3
       3       1  0.3000000000E+04         3    1         3      1501  0.5008428113E+00  0.1817792704E+00  0.8427297905E+00  0.1750421406E+04  0.5590889635E+04  0.1685459581E+03         3
       3       1  0.3000000000E+04         4    1         4      1466  0.7685420663E+00  0.4166855482E+00  0.8390151354E+00  0.1884271033E+04  0.6208342774E+04  0.1678030271E+03         3
       3       1  0.3000000000E+04         5    1         5      1843  0.5959414648E+00  0.9996844345E+00  0.7300540052E+00  0.4797970732E+04  0.2999842217E+04  0.1460108010E+03         3
       3       1  0.3000000000E+04         6    1         6      1786  0.2078365097E+00  0.3310857527E+00  0.6711832843E+00  0.6103918255E+04  0.4165542876E+04  0.1342366569E+03         3
       3       1  0.3000000000E+04         7    1         7      1490  0.2365648652E+00  0.7402787680E+00  0.6709513258E+00  0.6118282433E+04  0.6370139384E+04  0.1341902652E+03         3
       3       1  0.3000000000E+04         8    1         8      1412  0.6129935084E+00  0.1051381425E+00  0.7301168851E+00  0.4806496754E+04  0.7552569071E+04  0.1460233770E+03         3
       3       1  0.3000000000E+04         9    1         9      1798  0.2863283448E+00  0.5756173999E+00  0.8312142230E+00  0.2143164172E+04  0.3787808700E+04  0.1662428446E+03         3
       3       1  0.3000000000E+04        10    1        10      1819  0.6801513004E-01  0.6592391247E+00  0.8175174604E+00  0.2534007565E+04  0.3329619562E+04  0.1635034921E+03         3
       3       1  0.3000000000E+04        11    1        11      1840  0.8056845348E-01  0.9640041618E+00  0.7991375348E+00  0.3040284227E+04  0.2982002081E+04  0.1598275070E+03         3
       3       1  0.3000000000E+04        12    1        12      1841  0.5532767781E+00  0.6367629893E+00  0.7714794700E+00  0.3776638389E+04  0.2818381495E+04  0.1542958940E+03         3
       3       1  0.3000000000E+04        13    1        13      1447  0.2875850716E+00  0.5161294588E+00  0.8313257715E+00  0.2143792536E+04  0.6758064729E+04  0.1662651543E+03         3
       3       1  0.3000000000E+04        14    1        14      1428  0.6057416674E-01  0.4421286928E+00  0.8178893721E+00  0.2530287083E+04  0.7221064346E+04  0.1635778744E+03         3
       3       1  0.3000000000E+04        15    1        15      1409  0.8400465615E-01  0.1414759110E+00  0.7994980722E+00  0.3042002328E+04  0.7570737956E+04  0.1598996144E+03         3
       3       1  0.3000000000E+04        16    1        16      1410  0.5513467931E+00  0.4764169458E+00  0.7718231314E+00  0.3775673397E+04  0.7738208473E+04  0.1543646263E+03         3
       4       1  0.4000000000E+04         1    1         1      1110  0.9977247909E+00  0.4807405424E+00  0.3961684390E-01  0.1498862395E+04  0.4240370271E+04  0.2007923369E+03         2
       4       1  0.4000000000E+04         2    1         2      1039  0.7567511861E+00  0.8359635794E+00  0.9647089304E-01  0.1378375593E+04  0.4917981790E+04  0.2019294179E+03         2
       4       1  0.4000000000E+04         3    1         3       849  0.7683813127E+00  0.2389029111E+00  0.9397413339E-01  0.1384190656E+04  0.5619451456E+04  0.2018794827E+03         2
       4       1  0.4000000000E+04         4    1         4       814  0.9959032166E+00  0.5964525551E+00  0.3890617100E-01  0.1497951608E+04  0.6298226278E+04  0.2007781234E+03         2
       4       1  0.4000000000E+04         5    1         5      1842  0.6908072013E+00  0.2260024556E+00  0.8369114436E+00  0.4345403601E+04  0.2613001228E+04  0.1673822887E+03         3
       4       1  0.4000000000E+04         6    1         6      1806  0.6597345784E-02  0.6557082521E+00  0.7275216457E+00  0.6003298673E+04  0.3827854126E+04  0.1455043291E+03         3
       4       1  0.4000000000E+04         7    1         7      1455  0.4890463575E-01  0.4018726982E+00  0.7273246820E+00  0.6024452318E+04  0.6700936349E+04  0.1454649364E+03         3
       4       1  0.4000000000E+04         8    1         8      1411  0.7071090144E+00  0.8767418333E+00  0.8370320480E+00  0.4353554507E+04  0.7938370917E+04  0.1674064096E+03         3
       4       1  0.4000000000E+04         9    1         9      1797  0.4693890407E+00  0.2926645506E+00  0.9928337136E+00  0.1734694520E+04  0.3646332275E+04  0.1985667427E+03         3
       4       1  0.4000000000E+04        10    1        10      1818  0.2080924389E+00  0.2996906571E+00  0.9731867717E+00  0.2104046219E+04  0.3149845329E+04  0.1946373543E+03         3
       4       1  0.4000000000E+04        11    1        11      1839  0.1946073646E+00  0.5218344473E+00  0.9457374380E+00  0.2597303682E+04  0.2760917224E+04  0.1891474876E+03         3
       4       1  0.4000000000E+04        12    1        12      1840  0.5742642464E+00  0.6772272572E-01  0.9037890592E+00  0.3287132123E+04  0.2533861363E+04  0.1807578118E+03         3
       4       1  0.4000000000E+04        13    1        13      1446  0.4602859876E+00  0.7896407120E+00  0.9930845536E+00  0.1730142994E+04  0.6894820356E+04  0.1986169107E+03         3
       4       1  0.4000000000E+04        14    1        14      1427  0.1893926031E+00  0.7926117078E+00  0.9738080778E+00  0.2094696302E+04  0.7396305854E+04  0.1947616156E+03         3
       4       1  0.4000000000E+04        15    1        15      1408  0.1852473739E+00  0.5763433816E+00  0.9463157298E+00  0.2592623687E+04  0.7788171691E+04  0.1892631460E+03         3
       4       1  0.4000000000E+04        16    1        16      1389  0.5658519636E+00  0.3758196959E-01  0.9043883316E+00  0.3282925982E+04  0.8018790985E+04  0.1808776663E+03         3
       5       1  0.5000000000E+04         1    1         1       459  0.8371415472E+00  0.4755859920E+00  0.1477778285E+00  0.1418570774E+04  0.4237792996E+04  0.2375648660E+03         1
       5       1  0.5000000000E+04         2    1         2       388  0.5989889876E+00  0.8336519902E+00  0.1583651373E+00  0.1299494494E+04  0.4916825995E+04  0.2388225723E+03         1
       5       1  0.5000000000E+04         3    1         3       198  0.6102813981E+00  0.2403676265E+00  0.1579732188E+00  0.1305140699E+04  0.5620183813E+04  0.2387758267E+03         1
       5       1  0.5000000000E+04         4    1         4       163  0.8354002933E+00  0.6008676406E+00  0.1477509910E+00  0.1417700147E+04  0.6300433820E+04  0.2375613740E+03         1
       5       1  0.5000000000E+04         5    1         5      1861  0.7642528501E+00  0.6278997226E+00  0.9689306761E+00  0.3882126425E+04  0.2313949861E+04  0.1937861352E+03         3
       5       1  0.5000000000E+04         6    1         6      1825  0.6179540978E+00  0.7744696868E+00  0.8054410114E+00  0.5808977049E+04  0.3387234843E+04  0.1610882023E+03         3
       5       1  0.5000000000E+04         7    1         7      1434  0.6895142888E+00  0.2491591642E+00  0.8026365069E+00  0.5844757144E+04  0.7124579582E+04  0.1605273014E+03         3
       5       1  0.5000000000E+04         8    1         8      1390  0.7822761977E+00  0.4716390642E+00  0.9688477474E+00  0.3891138099E+04  0.8235819532E+04  0.1937695495E+03         3
       5       1  0.5000000000E+04         9    1         9       495  0.2823172298E+00  0.2754843781E+00  0.1235039689E+00  0.1641158615E+04  0.3637742189E+04  0.2346589087E+03         1
       5       1  0.5000000000E+04        10    1        10       515  0.9579205240E+00  0.2398347704E+00  0.8197111860E-01  0.1978960262E+04  0.3119917385E+04  0.2297300278E+03         1
       5       1  0.5000000000E+04        11    1        11       536  0.8677405523E+00  0.3923014474E+00  0.2871794496E-01  0.2433870276E+04  0.2696150724E+04  0.2234024043E+03         1
       5       1  0.5000000000E+04        12    1        12      1209  0.2685385276E-01  0.7776882784E+00  0.6059745210E+00  0.3013426926E+04  0.2388844139E+04  0.2121194904E+03         2
       5       1  0.5000000000E+04        13    1        13       144  0.2735862612E+00  0.8055717926E+00  0.1241201172E+00  0.1636793131E+04  0.6902785896E+04  0.2347316579E+03         1
       5       1  0.5000000000E+04        14    1        14       124  0.9394360818E+00  0.8496941863E+00  0.8352347899E-01  0.1969718041E+04  0.7424847093E+04  0.2299139729E+03         1
       5       1  0.5000000000E+04        15    1        15       105  0.8557507632E+00  0.7009850910E+00  0.3013377046E-01  0.2427875382E+04  0.7850492546E+04  0.2235700048E+03         1
       5       1  0.5000000000E+04        16    1        16       738  0.2804607764E-01  0.3218642273E+00  0.6128457761E+00  0.3014023039E+04  0.8160932114E+04  0.2122569155E+03         2
       6       1  0.6000000000E+04         1    1         1       459  0.5246665956E+00  0.4646116179E+00  0.4895318718E+00  0.1262333298E+04  0.4232305809E+04  0.2781857362E+03         1
       6       1  0.6000000000E+04         2    1         2       388  0.3122421759E+00  0.8290403188E+00  0.5017565283E+00  0.1156121088E+04  0.4914520159E+04  0.2796365380E+03         1
       6       1  0.6000000000E+04         3    1         3       198  0.3221692336E+00  0.2432972119E+00  0.5013570578E+00  0.1161084617E+04  0.5621648606E+04  0.2795885385E+03         1
       6       1  0.6000000000E+04         4    1         4       163  0.5229454756E+00  0.6102729913E+00  0.4895780392E+00  0.1261472738E+04  0.6305136496E+04  0.2781902226E+03         1
       6       1  0.6000000000E+04         5    1         5       559  0.4395708627E+00  0.5207771998E+00  0.3773165604E-01  0.3719785431E+04  0.2260388600E+04  0.2244291366E+03         1
       6       1  0.6000000000E+04         6    1         6      1825  0.2264154886E-01  0.1405207093E-01  0.8906257395E+00  0.5511320774E+04  0.3007026035E+04  0.1781251479E+03         3
       6       1  0.6000000000E+04         7    1         7      1414  0.1198988225E+00  0.1713412756E-01  0.8877510843E+00  0.5559949411E+04  0.7508567064E+04  0.1775502169E+03         3
       6       1  0.6000000000E+04         8    1         8        88  0.4547306000E+00  0.5776532289E+00  0.3795287963E-01  0.3727365300E+04  0.8288826614E+04  0.2244548895E+03         1
       6       1  0.6000000000E+04         9    1         9       494  0.9208902130E+00  0.2589541486E+00  0.4596925613E+00  0.1460445107E+04  0.3629477074E+04  0.2746419971E+03         1
       6       1  0.6000000000E+04        10    1        10       515  0.5208167912E+00  0.2211396979E+00  0.4115861139E+00  0.1760408396E+04  0.3110569849E+04  0.2688555531E+03         1
       6       1  0.6000000000E+04        11    1        11       536  0.3247312298E+00  0.3710669532E+00  0.3458141253E+00  0.2162365615E+04  0.2685533477E+04  0.2609708794E+03         1
       6       1  0.6000000000E+04        12    1        12       557  0.4997932829E+00  0.7601721809E+00  0.2263317766E+00  0.2749896641E+04  0.2380086090E+04  0.2467502499E+03         1
       6       1  0.6000000000E+04        13    1        13       143  0.9129167844E+00  0.8206334898E+00  0.4605624893E+00  0.1456458392E+04  0.6910316745E+04  0.2747440530E+03         1
       6       1  0.6000000000E+04        14    1        14       124  0.5041386963E+00  0.8671125269E+00  0.4134990313E+00  0.1752069348E+04  0.7433556263E+04  0.2690810277E+03         1
       6       1  0.6000000000E+04        15    1        15       105  0.3138360114E+00  0.7210188136E+00  0.3476433785E+00  0.2156918006E+04  0.7860509407E+04  0.2611859692E+03         1
       6       1  0.6000000000E+04        16    1        16        86  0.4976488912E+00  0.3385808443E+00  0.2279497738E+00  0.2748824446E+04  0.8169290422E+04  0.2469402574E+03         1
       7       1  0.7000000000E+04         1    1         1       459  0.2473419751E+00  0.4535924068E+00  0.8730357829E+00  0.1123670988E+04  0.4226796203E+04  0.3237689937E+03         1
       7       1  0.7000000000E+04         2    1         2       388  0.5788413884E-01  0.8244052763E+00  0.8869219256E+00  0.1028942069E+04  0.4912202638E+04  0.3254155753E+03         1
       7       1  0.7000000000E+04         3    1         3       198  0.6661127647E-01  0.2462419219E+00  0.8864945286E+00  0.1033305638E+04  0.5623120961E+04  0.3253638570E+03         1
       7       1  0.7000000000E+04         4    1         4       163  0.2456596844E+00  0.6197183713E+00  0.8731277776E+00  0.1122829842E+04  0.6309859186E+04  0.3237781429E+03         1
       7       1  0.7000000000E+04         5    1         5       558  0.5600812176E+00  0.4948539158E+00  0.3336769224E+00  0.3280040609E+04  0.2247426958E+04  0.2593155078E+03         1
       7       1  0.7000000000E+04         6    1         6      1193  0.2589275211E+00  0.2774902904E+00  0.8021959529E-02  0.5129463761E+04  0.2638745145E+04  0.2001604392E+03         2
       7       1  0.7000000000E+04         7    1         7      1413  0.3678895149E+00  0.7548050891E+00  0.9953979799E+00  0.5183944757E+04  0.7877402545E+04  0.1990795960E+03         3
       7       1  0.7000000000E+04         8    1         8        87  0.5728380592E+00  0.6025084612E+00  0.3340782985E+00  0.3286419030E+04  0.8301254231E+04  0.2593609546E+03         1
       7       1  0.7000000000E+04         9    1         9       494  0.6006912509E+00  0.2440298685E+00  0.8392786169E+00  0.1300345625E+04  0.3622014934E+04  0.3197620228E+03         1
       7       1  0.7000000000E+04        10    1        10       515  0.1340109054E+00  0.2024230268E+00  0.7836324350E+00  0.1567005453E+04  0.3101211513E+04  0.3130177057E+03         1
       7       1  0.7000000000E+04        11    1        11       535  0.8469593674E+00  0.3507149559E+00  0.7069213511E+00  0.1923479684E+04  0.2675357478E+04  0.3039187570E+03         1
       7       1  0.7000000000E+04        12    1        12       556  0.8811525119E+00  0.7377499383E+00  0.5657033757E+00  0.2440576256E+04  0.2368874969E+04  0.2870285301E+03         1
       7       1  0.7000000000E+04        13    1        13       143  0.5933827513E+00  0.8341416407E+00  0.8403144970E+00  0.1296691376E+04  0.6917070820E+04  0.3198826923E+03         1
       7       1  0.7000000000E+04        14    1        14       124  0.1189641047E+00  0.8845556414E+00  0.7858847599E+00  0.1559482052E+04  0.7442277821E+04  0.3132820363E+03         1
       7       1  0.7000000000E+04        15    1        15       104  0.8370482628E+00  0.7401183344E+00  0.7091704291E+00  0.1918524131E+04  0.7870059167E+04  0.3041825208E+03         1
       7       1  0.7000000000E+04        16    1        16        85  0.8789852758E+00  0.3598056263E+00  0.5677601688E+00  0.2439492638E+04  0.8179902813E+04  0.2872692533E+03         1
       8       1  0.8000000000E+04         5    1         5       557  0.8033340256E+00  0.4708243894E+00  0.6844578327E+00  0.2901667013E+04  0.2235412195E+04  0.3008963653E+03         1
       8       1  0.8000000000E+04         6    1         6       542  0.3256662181E-01  0.2726251008E+00  0.3176859773E-01  0.5016283311E+04  0.2636312550E+04  0.2236698101E+03         1
       8       1  0.8000000000E+04         7    1         7       111  0.1726944853E+00  0.7848760448E+00  0.2261230022E-01  0.5086347243E+04  0.7892438022E+04  0.2226119870E+03         1
       8       1  0.8000000000E+04         8    1         8        86  0.8140845594E+00  0.6254683743E+00  0.6850508796E+00  0.2907042280E+04  0.8312734187E+04  0.3009627783E+03         1
       8       1  0.8000000000E+04        12    1        12       556  0.3390456800E+00  0.7175124865E+00  0.9561231164E+00  0.2169522840E+04  0.2358756243E+04  0.3332882176E+03         1
       8       1  0.8000000000E+04        16    1        16        85  0.3368456178E+00  0.3788598434E+00  0.9585433230E+00  0.2168422809E+04  0.8189429922E+04  0.3335699493E+03         1
       9       1  0.9000000000E+04         6    1         6       540  0.7308127404E+00  0.2402422584E+00  0.2941273504E+00  0.4365406370E+04  0.2620121129E+04  0.2543680915E+03         1
       9       1  0.9000000000E+04         7    1         7       109  0.8448083877E+00  0.8163111297E+00  0.2792217967E+00  0.4422404194E+04  0.7908155565E+04  0.2526249213E+03         1
      10       1  0.1000000000E+05         6    1         6       539  0.6523392667E+00  0.2090470126E+00  0.6258603425E+00  0.3826169633E+04  0.2604523506E+04  0.2934575500E+03         1
      10       1  0.1000000000E+05         7    1         7       108  0.7478571224E+00  0.8467448767E+00  0.6077412638E+00  0.3873928561E+04  0.7923372438E+04  0.2913277144E+03         1
