MODPATH_ENDPOINT_FILE         7         0
    2        16        16        16   0.0000000000E+00
       0       0      16       0       0       0       0       0       0       0
         1
PG1             
END HEADER
         1         1         1    2  0.0000000000E+00  0.7307193967E+04      1623    3  0.0000000000E+00  0.1250000000E+00  0.5000000000E+00  0.4687500000E+04  0.5257812500E+04  0.1000000000E+03    2    1       459    1  0.1685841108E+00  0.4501983409E+00  0.1000000000E+01  0.1084292055E+04  0.4225099170E+04  0.3388599548E+03    1    6
         2         1         2    2  0.0000000000E+00  0.7273059997E+04      1623    3  0.0000000000E+00  0.3750000000E+00  0.5000000000E+00  0.4687500000E+04  0.5273437500E+04  0.1000000000E+03    2    1       387    1  0.9935725855E+00  0.8231478153E+00  0.1000000000E+01  0.9967862927E+03  0.4911573908E+04  0.3389717407E+03    1    6
         3         1         3    2  0.0000000000E+00  0.7274077861E+04      1623    3  0.0000000000E+00  0.6250000000E+00  0.5000000000E+00  0.4687500000E+04  0.5289062500E+04  0.1000000000E+03    2    1       198    1  0.1755183875E-02  0.2470516528E+00  0.1000000000E+01  0.1000877592E+04  0.5623525826E+04  0.3388544922E+03    1    6
         4         1         4    2  0.0000000000E+00  0.7306957537E+04      1623    3  0.0000000000E+00  0.8750000000E+00  0.5000000000E+00  0.4687500000E+04  0.5304687500E+04  0.1000000000E+03    2    1       163    1  0.1669762914E+00  0.6226257576E+00  0.1000000000E+01  0.1083488146E+04  0.6311312879E+04  0.3388579102E+03    1    6
         5         1         5    2  0.0000000000E+00  0.8787328473E+04      1623    3  0.1000000000E+01  0.1250000000E+00  0.5000000000E+00  0.4750000000E+04  0.5257812500E+04  0.1000000000E+03    2    2       557    1  0.2784307456E+00  0.4534242136E+00  0.1000000000E+01  0.2639215373E+04  0.2226712107E+04  0.3381904297E+03    1    6
         6         1         6    2  0.0000000000E+00  0.1094797513E+05      1623    3  0.1000000000E+01  0.3750000000E+00  0.5000000000E+00  0.4750000000E+04  0.5273437500E+04  0.1000000000E+03    2    2       538    1  0.7834565633E+00  0.1814569974E+00  0.1000000000E+01  0.3391728282E+04  0.2590728499E+04  0.3378117371E+03    1    6
         7         1         7    2  0.0000000000E+00  0.1099747561E+05      1623    3  0.1000000000E+01  0.6250000000E+00  0.5000000000E+00  0.4750000000E+04  0.5289062500E+04  0.1000000000E+03    2    2       107    1  0.8227624045E+00  0.8749427578E+00  0.1000000000E+01  0.3411381202E+04  0.7937471379E+04  0.3378066406E+03    1    6
         8         1         8    2  0.0000000000E+00  0.8785643053E+04      1623    3  0.1000000000E+01  0.8750000000E+00  0.5000000000E+00  0.4750000000E+04  0.5304687500E+04  0.1000000000E+03    2    2        86    1  0.2889284019E+00  0.6419585810E+00  0.1000000000E+01  0.2644464201E+04  0.8320979291E+04  0.3381850586E+03    1    6
         9         1         9    2  0.0000000000E+00  0.7390807009E+04      1623    3  0.1250000000E+00  0.0000000000E+00  0.5000000000E+00  0.4695312500E+04  0.5250000000E+04  0.1000000000E+03    2    3       494    1  0.4855213706E+00  0.2381863255E+00  0.1000000000E+01  0.1242760685E+04  0.3619093163E+04  0.3388663940E+03    1    6
        10         1        10    2  0.0000000000E+00  0.7530503257E+04      1623    3  0.3750000000E+00  0.0000000000E+00  0.5000000000E+00  0.4710937500E+04  0.5250000000E+04  0.1000000000E+03    2    3       514    1  0.9472782229E+00  0.1928164605E+00  0.1000000000E+01  0.1473639111E+04  0.3096408230E+04  0.3388742065E+03    1    6
        11         1        11    2  0.0000000000E+00  0.7727176135E+04      1623    3  0.6250000000E+00  0.0000000000E+00  0.5000000000E+00  0.4726562500E+04  0.5250000000E+04  0.1000000000E+03    2    3       535    1  0.5351100279E+00  0.3371725859E+00  0.1000000000E+01  0.1767555014E+04  0.2668586293E+04  0.3387101746E+03    1    6
        12         1        12    2  0.0000000000E+00  0.8104684567E+04      1623    3  0.8750000000E+00  0.0000000000E+00  0.5000000000E+00  0.4742187500E+04  0.5250000000E+04  0.1000000000E+03    2    3       556    1  0.2861846908E+00  0.7153967673E+00  0.1000000000E+01  0.2143092345E+04  0.2357698384E+04  0.3384870605E+03    1    6
        13         1        13    2  0.0000000000E+00  0.7388211145E+04      1623    3  0.1250000000E+00  0.1000000000E+01  0.5000000000E+00  0.4695312500E+04  0.5312500000E+04  0.1000000000E+03    2    4       143    1  0.4792052570E+00  0.8393963469E+00  0.1000000000E+01  0.1239602629E+04  0.6919698173E+04  0.3388634644E+03    1    6
        14         1        14    2  0.0000000000E+00  0.7524787412E+04      1623    3  0.3750000000E+00  0.1000000000E+01  0.5000000000E+00  0.4710937500E+04  0.5312500000E+04  0.1000000000E+03    2    4       123    1  0.9349806111E+00  0.8933094233E+00  0.1000000000E+01  0.1467490306E+04  0.7446654712E+04  0.3388704834E+03    1    6
        15         1        15    2  0.0000000000E+00  0.7721262857E+04      1623    3  0.6250000000E+00  0.1000000000E+01  0.5000000000E+00  0.4726562500E+04  0.5312500000E+04  0.1000000000E+03    2    4       104    1  0.5282391373E+00  0.7526892818E+00  0.1000000000E+01  0.1764119569E+04  0.7876344641E+04  0.3387056274E+03    1    6
        16         1        16    2  0.0000000000E+00  0.8098867562E+04      1623    3  0.8750000000E+00  0.1000000000E+01  0.5000000000E+00  0.4742187500E+04  0.5312500000E+04  0.1000000000E+03    2    4        85    1  0.2869011122E+00  0.3807414389E+00  0.1000000000E+01  0.2143450556E+04  0.8190370719E+04  0.3384818115E+03    1    6
