MODPATH_ENDPOINT_FILE         7         0
    2       416       416       416   0.0000000000E+00
       0       0     416       0       0       0       0       0       0       0
         1
PG1             
END HEADER
         1         1         1    2  0.0000000000E+00  0.1991597081E+05      1623    3  0.0000000000E+00  0.5000000000E-01  0.5000000000E-01  0.4687500000E+04  0.5253125000E+04  0.1000000000E+02    2    1       532    1  0.1732884364E+00  0.9859294198E+00  0.1000000000E+01  0.8664421822E+02  0.2992964710E+04  0.3390527344E+03    1    6
         2         1         2    2  0.0000000000E+00  0.1987269918E+05      1623    3  0.0000000000E+00  0.1500000000E+00  0.5000000000E-01  0.4687500000E+04  0.5259375000E+04  0.1000000000E+02    2    1       512    1  0.1449667762E+00  0.7364934251E+00  0.1000000000E+01  0.7248338810E+02  0.3368246713E+04  0.3390453796E+03    1    6
         3         1         3    2  0.0000000000E+00  0.1984004089E+05      1623    3  0.0000000000E+00  0.2500000000E+00  0.5000000000E-01  0.4687500000E+04  0.5265625000E+04  0.1000000000E+02    2    1       492    1  0.1227405880E+00  0.6318023976E+00  0.1000000000E+01  0.6137029402E+02  0.3815901199E+04  0.3390386658E+03    1    6
         4         1         4    2  0.0000000000E+00  0.1981318796E+05      1623    3  0.0000000000E+00  0.3500000000E+00  0.5000000000E-01  0.4687500000E+04  0.5271875000E+04  0.1000000000E+02    2    1       457    1  0.1064430546E+00  0.6662754878E+00  0.1000000000E+01  0.5322152732E+02  0.4333137744E+04  0.3390331726E+03    1    6
         5         1         5    2  0.0000000000E+00  0.1979642720E+05      1623    3  0.0000000000E+00  0.4500000000E+00  0.5000000000E-01  0.4687500000E+04  0.5278125000E+04  0.1000000000E+02    2    1       386    1  0.9682057047E-01  0.8213775000E+00  0.1000000000E+01  0.4841028523E+02  0.4910688750E+04  0.3390294189E+03    1    6
         6         1         6    2  0.0000000000E+00  0.1979399947E+05      1623    3  0.0000000000E+00  0.5500000000E+00  0.5000000000E-01  0.4687500000E+04  0.5284375000E+04  0.1000000000E+02    2    1       196    1  0.9553910047E-01  0.4329495994E-01  0.1000000000E+01  0.4776955024E+02  0.5521647480E+04  0.3390284424E+03    1    6
         7         1         7    2  0.0000000000E+00  0.1981173679E+05      1623    3  0.0000000000E+00  0.6500000000E+00  0.5000000000E-01  0.4687500000E+04  0.5290625000E+04  0.1000000000E+02    2    1       161    1  0.1042975441E+00  0.2121180255E+00  0.1000000000E+01  0.5214877205E+02  0.6106059013E+04  0.3390312500E+03    1    6
         8         1         8    2  0.0000000000E+00  0.1983384829E+05      1623    3  0.0000000000E+00  0.7500000000E+00  0.5000000000E-01  0.4687500000E+04  0.5296875000E+04  0.1000000000E+02    2    1       141    1  0.1193567591E+00  0.2717221314E+00  0.1000000000E+01  0.5967837953E+02  0.6635861066E+04  0.3390358582E+03    1    6
         9         1         9    2  0.0000000000E+00  0.1986674448E+05      1623    3  0.0000000000E+00  0.8500000000E+00  0.5000000000E-01  0.4687500000E+04  0.5303125000E+04  0.1000000000E+02    2    1       121    1  0.1411785303E+00  0.1884350710E+00  0.1000000000E+01  0.7058926513E+02  0.7094217536E+04  0.3390418091E+03    1    6
        10         1        10    2  0.0000000000E+00  0.1991020290E+05      1623    3  0.0000000000E+00  0.9500000000E+00  0.5000000000E-01  0.4687500000E+04  0.5309375000E+04  0.1000000000E+02    2    1       121    1  0.1692952861E+00  0.9588230165E+00  0.1000000000E+01  0.8464764305E+02  0.7479411508E+04  0.3390418091E+03    1    6
        11         1        11    2  0.0000000000E+00  0.1391386923E+05      1623    3  0.0000000000E+00  0.5000000000E-01  0.1500000000E+00  0.4687500000E+04  0.5253125000E+04  0.3000000000E+02    2    1       512    1  0.5562125845E+00  0.9689849200E+00  0.1000000000E+01  0.2781062923E+03  0.3484492460E+04  0.3390453796E+03    1    6
        12         1        12    2  0.0000000000E+00  0.1387724586E+05      1623    3  0.0000000000E+00  0.1500000000E+00  0.1500000000E+00  0.4687500000E+04  0.5259375000E+04  0.3000000000E+02    2    1       492    1  0.4999814609E+00  0.6463462551E+00  0.1000000000E+01  0.2499907304E+03  0.3823173128E+04  0.3390386658E+03    1    6
        13         1        13    2  0.0000000000E+00  0.1385280883E+05      1623    3  0.0000000000E+00  0.2500000000E+00  0.1500000000E+00  0.4687500000E+04  0.5265625000E+04  0.3000000000E+02    2    1       457    1  0.4558461482E+00  0.3986750023E+00  0.1000000000E+01  0.2279230741E+03  0.4199337501E+04  0.3390331726E+03    1    6
        14         1        14    2  0.0000000000E+00  0.1383320283E+05      1623    3  0.0000000000E+00  0.3500000000E+00  0.1500000000E+00  0.4687500000E+04  0.5271875000E+04  0.3000000000E+02    2    1       386    1  0.4220097116E+00  0.2056960472E+00  0.1000000000E+01  0.2110048558E+03  0.4602848024E+04  0.3390294189E+03    1    6
        15         1        15    2  0.0000000000E+00  0.1382154374E+05      1623    3  0.0000000000E+00  0.4500000000E+00  0.1500000000E+00  0.4687500000E+04  0.5278125000E+04  0.3000000000E+02    2    1       267    1  0.4005843867E+00  0.5336977157E-01  0.1000000000E+01  0.2002921933E+03  0.5026684886E+04  0.3390278015E+03    1    6
        16         1        16    2  0.0000000000E+00  0.1382050678E+05      1623    3  0.0000000000E+00  0.5500000000E+00  0.1500000000E+00  0.4687500000E+04  0.5284375000E+04  0.3000000000E+02    2    1       267    1  0.3999146768E+00  0.9249744306E+00  0.1000000000E+01  0.1999573384E+03  0.5462487215E+04  0.3390278015E+03    1    6
        17         1        17    2  0.0000000000E+00  0.1383376857E+05      1623    3  0.0000000000E+00  0.6500000000E+00  0.1500000000E+00  0.4687500000E+04  0.5290625000E+04  0.3000000000E+02    2    1       196    1  0.4200035936E+00  0.7753299265E+00  0.1000000000E+01  0.2100017968E+03  0.5887664963E+04  0.3390284424E+03    1    6
        18         1        18    2  0.0000000000E+00  0.1384909238E+05      1623    3  0.0000000000E+00  0.7500000000E+00  0.1500000000E+00  0.4687500000E+04  0.5296875000E+04  0.3000000000E+02    2    1       161    1  0.4510471596E+00  0.5908735317E+00  0.1000000000E+01  0.2255235798E+03  0.6295436766E+04  0.3390312500E+03    1    6
        19         1        19    2  0.0000000000E+00  0.1387414141E+05      1623    3  0.0000000000E+00  0.8500000000E+00  0.1500000000E+00  0.4687500000E+04  0.5303125000E+04  0.3000000000E+02    2    1       141    1  0.4957657348E+00  0.3496357572E+00  0.1000000000E+01  0.2478828674E+03  0.6674817879E+04  0.3390358582E+03    1    6
        20         1        20    2  0.0000000000E+00  0.1391250534E+05      1623    3  0.0000000000E+00  0.9500000000E+00  0.1500000000E+00  0.4687500000E+04  0.5309375000E+04  0.3000000000E+02    2    1       121    1  0.5503530942E+00  0.3475527982E-01  0.1000000000E+01  0.2751765471E+03  0.7017377640E+04  0.3390418091E+03    1    6
        21         1        21    2  0.0000000000E+00  0.1112738080E+05      1623    3  0.0000000000E+00  0.5000000000E-01  0.2500000000E+00  0.4687500000E+04  0.5253125000E+04  0.5000000000E+02    2    1       492    1  0.9992311540E+00  0.4173244959E+00  0.1000000000E+01  0.4996155770E+03  0.3708662248E+04  0.3390386658E+03    1    6
        22         1        22    2  0.0000000000E+00  0.1109201164E+05      1623    3  0.0000000000E+00  0.1500000000E+00  0.2500000000E+00  0.4687500000E+04  0.5259375000E+04  0.5000000000E+02    2    1       457    1  0.9043799052E+00  0.3645846052E-01  0.1000000000E+01  0.4521899526E+03  0.4018229230E+04  0.3390331726E+03    1    6
        23         1        23    2  0.0000000000E+00  0.1107458634E+05      1623    3  0.0000000000E+00  0.2500000000E+00  0.2500000000E+00  0.4687500000E+04  0.5265625000E+04  0.5000000000E+02    2    1       457    1  0.8540358449E+00  0.7054660817E+00  0.1000000000E+01  0.4270179224E+03  0.4352733041E+04  0.3390331726E+03    1    6
        24         1        24    2  0.0000000000E+00  0.1105783999E+05      1623    3  0.0000000000E+00  0.3500000000E+00  0.2500000000E+00  0.4687500000E+04  0.5271875000E+04  0.5000000000E+02    2    1       386    1  0.8141650127E+00  0.4101646234E+00  0.1000000000E+01  0.4070825064E+03  0.4705082312E+04  0.3390294189E+03    1    6
        25         1        25    2  0.0000000000E+00  0.1104714585E+05      1623    3  0.0000000000E+00  0.4500000000E+00  0.2500000000E+00  0.4687500000E+04  0.5278125000E+04  0.5000000000E+02    2    1       267    1  0.7817822433E+00  0.1386970582E+00  0.1000000000E+01  0.3908911217E+03  0.5069348529E+04  0.3390278015E+03    1    6
        26         1        26    2  0.0000000000E+00  0.1104610143E+05      1623    3  0.0000000000E+00  0.5500000000E+00  0.2500000000E+00  0.4687500000E+04  0.5284375000E+04  0.5000000000E+02    2    1       267    1  0.7804725142E+00  0.8814967226E+00  0.1000000000E+01  0.3902362571E+03  0.5440748361E+04  0.3390278015E+03    1    6
        27         1        27    2  0.0000000000E+00  0.1105873958E+05      1623    3  0.0000000000E+00  0.6500000000E+00  0.2500000000E+00  0.4687500000E+04  0.5290625000E+04  0.5000000000E+02    2    1       196    1  0.8123613816E+00  0.6109027566E+00  0.1000000000E+01  0.4061806908E+03  0.5805451378E+04  0.3390284424E+03    1    6
        28         1        28    2  0.0000000000E+00  0.1107155131E+05      1623    3  0.0000000000E+00  0.7500000000E+00  0.2500000000E+00  0.4687500000E+04  0.5296875000E+04  0.5000000000E+02    2    1       161    1  0.8488530281E+00  0.3209997744E+00  0.1000000000E+01  0.4244265140E+03  0.6160499887E+04  0.3390312500E+03    1    6
        29         1        29    2  0.0000000000E+00  0.1108967237E+05      1623    3  0.0000000000E+00  0.8500000000E+00  0.2500000000E+00  0.4687500000E+04  0.5303125000E+04  0.5000000000E+02    2    1       161    1  0.8988428654E+00  0.9929594685E+00  0.1000000000E+01  0.4494214327E+03  0.6496479734E+04  0.3390312500E+03    1    6
        30         1        30    2  0.0000000000E+00  0.1112549842E+05      1623    3  0.0000000000E+00  0.9500000000E+00  0.2500000000E+00  0.4687500000E+04  0.5309375000E+04  0.5000000000E+02    2    1       141    1  0.9938420638E+00  0.6161255010E+00  0.1000000000E+01  0.4969210319E+03  0.6808062750E+04  0.3390358582E+03    1    6
        31         1        31    2  0.0000000000E+00  0.9290250641E+04      1623    3  0.0000000000E+00  0.5000000000E-01  0.3500000000E+00  0.4687500000E+04  0.5253125000E+04  0.7000000000E+02    2    1       493    1  0.4724553909E+00  0.7104794170E+00  0.1000000000E+01  0.7362276954E+03  0.3855239708E+04  0.3389815063E+03    1    6
        32         1        32    2  0.0000000000E+00  0.9253065139E+04      1623    3  0.0000000000E+00  0.1500000000E+00  0.3500000000E+00  0.4687500000E+04  0.5259375000E+04  0.7000000000E+02    2    1       458    1  0.3708353452E+00  0.2894893722E+00  0.1000000000E+01  0.6854176726E+03  0.4144744686E+04  0.3389756775E+03    1    6
        33         1        33    2  0.0000000000E+00  0.9236129790E+04      1623    3  0.0000000000E+00  0.2500000000E+00  0.3500000000E+00  0.4687500000E+04  0.5265625000E+04  0.7000000000E+02    2    1       458    1  0.2941316281E+00  0.9039726007E+00  0.1000000000E+01  0.6470658140E+03  0.4451986300E+04  0.3389756775E+03    1    6
        34         1        34    2  0.0000000000E+00  0.9222077783E+04      1623    3  0.0000000000E+00  0.3500000000E+00  0.3500000000E+00  0.4687500000E+04  0.5271875000E+04  0.7000000000E+02    2    1       387    1  0.2590174676E+00  0.5402519707E+00  0.1000000000E+01  0.6295087338E+03  0.4770125985E+04  0.3389717407E+03    1    6
        35         1        35    2  0.0000000000E+00  0.9212891544E+04      1623    3  0.0000000000E+00  0.4500000000E+00  0.3500000000E+00  0.4687500000E+04  0.5278125000E+04  0.7000000000E+02    2    1       268    1  0.2183858107E+00  0.1925018335E+00  0.1000000000E+01  0.6091929054E+03  0.5096250917E+04  0.3389700317E+03    1    6
        36         1        36    2  0.0000000000E+00  0.9211880675E+04      1623    3  0.0000000000E+00  0.5500000000E+00  0.3500000000E+00  0.4687500000E+04  0.5284375000E+04  0.7000000000E+02    2    1       268    1  0.2163233794E+00  0.8528931740E+00  0.1000000000E+01  0.6081616897E+03  0.5426446587E+04  0.3389700317E+03    1    6
        37         1        37    2  0.0000000000E+00  0.9223254417E+04      1623    3  0.0000000000E+00  0.6500000000E+00  0.3500000000E+00  0.4687500000E+04  0.5290625000E+04  0.7000000000E+02    2    1       197    1  0.2584593160E+00  0.5051906005E+00  0.1000000000E+01  0.6292296580E+03  0.5752595300E+04  0.3389707336E+03    1    6
        38         1        38    2  0.0000000000E+00  0.9233633840E+04      1623    3  0.0000000000E+00  0.7500000000E+00  0.3500000000E+00  0.4687500000E+04  0.5296875000E+04  0.7000000000E+02    2    1       162    1  0.2902866187E+00  0.1456587834E+00  0.1000000000E+01  0.6451433093E+03  0.6072829392E+04  0.3389737244E+03    1    6
        39         1        39    2  0.0000000000E+00  0.9251234041E+04      1623    3  0.0000000000E+00  0.8500000000E+00  0.3500000000E+00  0.4687500000E+04  0.5303125000E+04  0.7000000000E+02    2    1       162    1  0.3667216480E+00  0.7606752223E+00  0.1000000000E+01  0.6833608240E+03  0.6380337611E+04  0.3389737244E+03    1    6
        40         1        40    2  0.0000000000E+00  0.9288939946E+04      1623    3  0.0000000000E+00  0.9500000000E+00  0.3500000000E+00  0.4687500000E+04  0.5309375000E+04  0.7000000000E+02    2    1       142    1  0.4701968529E+00  0.3427254046E+00  0.1000000000E+01  0.7350984265E+03  0.6671362702E+04  0.3389786682E+03    1    6
        41         1        41    2  0.0000000000E+00  0.7910416465E+04      1623    3  0.0000000000E+00  0.5000000000E-01  0.4500000000E+00  0.4687500000E+04  0.5253125000E+04  0.9000000000E+02    2    1       493    1  0.9686539658E+00  0.9615006684E+00  0.1000000000E+01  0.9843269829E+03  0.3980750334E+04  0.3389815063E+03    1    6
        42         1        42    2  0.0000000000E+00  0.7882877512E+04      1623    3  0.0000000000E+00  0.1500000000E+00  0.4500000000E+00  0.4687500000E+04  0.5259375000E+04  0.9000000000E+02    2    1       458    1  0.8745721054E+00  0.4959710987E+00  0.1000000000E+01  0.9372860527E+03  0.4247985549E+04  0.3389756775E+03    1    6
        43         1        43    2  0.0000000000E+00  0.7865740250E+04      1623    3  0.0000000000E+00  0.2500000000E+00  0.4500000000E+00  0.4687500000E+04  0.5265625000E+04  0.9000000000E+02    2    1       387    1  0.7822063576E+00  0.6120993108E-01  0.1000000000E+01  0.8911031788E+03  0.4530604966E+04  0.3389717407E+03    1    6
        44         1        44    2  0.0000000000E+00  0.7855148018E+04      1623    3  0.0000000000E+00  0.3500000000E+00  0.4500000000E+00  0.4687500000E+04  0.5271875000E+04  0.9000000000E+02    2    1       387    1  0.7489814936E+00  0.6401092635E+00  0.1000000000E+01  0.8744907468E+03  0.4820054632E+04  0.3389717407E+03    1    6
        45         1        45    2  0.0000000000E+00  0.7846877831E+04      1623    3  0.0000000000E+00  0.4500000000E+00  0.4500000000E+00  0.4687500000E+04  0.5278125000E+04  0.9000000000E+02    2    1       268    1  0.7029775885E+00  0.2324862648E+00  0.1000000000E+01  0.8514887942E+03  0.5116243132E+04  0.3389700317E+03    1    6
        46         1        46    2  0.0000000000E+00  0.7845882540E+04      1623    3  0.0000000000E+00  0.5500000000E+00  0.4500000000E+00  0.4687500000E+04  0.5284375000E+04  0.9000000000E+02    2    1       268    1  0.7000499575E+00  0.8306306565E+00  0.1000000000E+01  0.8500249787E+03  0.5415315328E+04  0.3389700317E+03    1    6
        47         1        47    2  0.0000000000E+00  0.7856492713E+04      1623    3  0.0000000000E+00  0.6500000000E+00  0.4500000000E+00  0.4687500000E+04  0.5290625000E+04  0.9000000000E+02    2    1       197    1  0.7507437052E+00  0.4228028235E+00  0.1000000000E+01  0.8753718526E+03  0.5711401412E+04  0.3389707336E+03    1    6
        48         1        48    2  0.0000000000E+00  0.7863073086E+04      1623    3  0.0000000000E+00  0.7500000000E+00  0.4500000000E+00  0.4687500000E+04  0.5296875000E+04  0.9000000000E+02    2    1       162    1  0.7692441735E+00  0.5404688223E-02  0.1000000000E+01  0.8846220867E+03  0.6002702344E+04  0.3389737244E+03    1    6
        49         1        49    2  0.0000000000E+00  0.7881445213E+04      1623    3  0.0000000000E+00  0.8500000000E+00  0.4500000000E+00  0.4687500000E+04  0.5303125000E+04  0.9000000000E+02    2    1       162    1  0.8736935787E+00  0.5700221818E+00  0.1000000000E+01  0.9368467894E+03  0.6285011091E+04  0.3389737244E+03    1    6
        50         1        50    2  0.0000000000E+00  0.7909688905E+04      1623    3  0.0000000000E+00  0.9500000000E+00  0.4500000000E+00  0.4687500000E+04  0.5309375000E+04  0.9000000000E+02    2    1       142    1  0.9717471793E+00  0.1071282383E+00  0.1000000000E+01  0.9858735897E+03  0.6553564119E+04  0.3389786682E+03    1    6
        51         1        51    2  0.0000000000E+00  0.6809016553E+04      1623    3  0.0000000000E+00  0.5000000000E-01  0.5500000000E+00  0.4687500000E+04  0.5253125000E+04  0.1100000000E+03    2    1       459    1  0.5323666356E+00  0.1900941427E+00  0.1000000000E+01  0.1266183318E+04  0.4095047071E+04  0.3388599548E+03    1    6
        52         1        52    2  0.0000000000E+00  0.6786019025E+04      1623    3  0.0000000000E+00  0.1500000000E+00  0.5500000000E+00  0.4687500000E+04  0.5259375000E+04  0.1100000000E+03    2    1       459    1  0.4137029227E+00  0.6789334225E+00  0.1000000000E+01  0.1206851461E+04  0.4339466711E+04  0.3388599548E+03    1    6
        53         1        53    2  0.0000000000E+00  0.6770364105E+04      1623    3  0.0000000000E+00  0.2500000000E+00  0.5500000000E+00  0.4687500000E+04  0.5265625000E+04  0.1100000000E+03    2    1       388    1  0.3284549905E+00  0.1972732785E+00  0.1000000000E+01  0.1164227495E+04  0.4598636639E+04  0.3388555298E+03    1    6
        54         1        54    2  0.0000000000E+00  0.6759708818E+04      1623    3  0.0000000000E+00  0.3500000000E+00  0.5500000000E+00  0.4687500000E+04  0.5271875000E+04  0.1100000000E+03    2    1       388    1  0.2841618122E+00  0.7255108911E+00  0.1000000000E+01  0.1142080906E+04  0.4862755446E+04  0.3388555298E+03    1    6
        55         1        55    2  0.0000000000E+00  0.6751892732E+04      1623    3  0.0000000000E+00  0.4500000000E+00  0.5500000000E+00  0.4687500000E+04  0.5278125000E+04  0.1100000000E+03    2    1       269    1  0.2365443313E+00  0.2658492466E+00  0.1000000000E+01  0.1118272166E+04  0.5132924623E+04  0.3388536682E+03    1    6
        56         1        56    2  0.0000000000E+00  0.6750884544E+04      1623    3  0.0000000000E+00  0.5500000000E+00  0.5500000000E+00  0.4687500000E+04  0.5284375000E+04  0.1100000000E+03    2    1       269    1  0.2326180471E+00  0.8109622948E+00  0.1000000000E+01  0.1116309024E+04  0.5405481147E+04  0.3388536682E+03    1    6
        57         1        57    2  0.0000000000E+00  0.6761231488E+04      1623    3  0.0000000000E+00  0.6500000000E+00  0.5500000000E+00  0.4687500000E+04  0.5290625000E+04  0.1100000000E+03    2    1       198    1  0.2895749482E+00  0.3509347948E+00  0.1000000000E+01  0.1144787474E+04  0.5675467397E+04  0.3388544922E+03    1    6
        58         1        58    2  0.0000000000E+00  0.6767693648E+04      1623    3  0.0000000000E+00  0.7500000000E+00  0.5500000000E+00  0.4687500000E+04  0.5296875000E+04  0.1100000000E+03    2    1       198    1  0.3134493363E+00  0.8827602570E+00  0.1000000000E+01  0.1156724668E+04  0.5941380128E+04  0.3388544922E+03    1    6
        59         1        59    2  0.0000000000E+00  0.6784898474E+04      1623    3  0.0000000000E+00  0.8500000000E+00  0.5500000000E+00  0.4687500000E+04  0.5303125000E+04  0.1100000000E+03    2    1       163    1  0.4181731235E+00  0.3995754405E+00  0.1000000000E+01  0.1209086562E+04  0.6199787720E+04  0.3388579102E+03    1    6
        60         1        60    2  0.0000000000E+00  0.6808007792E+04      1623    3  0.0000000000E+00  0.9500000000E+00  0.5500000000E+00  0.4687500000E+04  0.5309375000E+04  0.1100000000E+03    2    1       163    1  0.5225976637E+00  0.8909041554E+00  0.1000000000E+01  0.1261298832E+04  0.6445452078E+04  0.3388579102E+03    1    6
        61         1        61    2  0.0000000000E+00  0.5891528862E+04      1623    3  0.0000000000E+00  0.5000000000E-01  0.6500000000E+00  0.4687500000E+04  0.5253125000E+04  0.1300000000E+03    2    1       460    1  0.1395769527E+00  0.4194126712E+00  0.1000000000E+01  0.1569788476E+04  0.4209706336E+04  0.3386843567E+03    1    6
        62         1        62    2  0.0000000000E+00  0.5869675116E+04      1623    3  0.0000000000E+00  0.1500000000E+00  0.6500000000E+00  0.4687500000E+04  0.5259375000E+04  0.1300000000E+03    2    1       459    1  0.9896295045E+00  0.8590167641E+00  0.1000000000E+01  0.1494814752E+04  0.4429508382E+04  0.3388599548E+03    1    6
        63         1        63    2  0.0000000000E+00  0.5856321677E+04      1623    3  0.0000000000E+00  0.2500000000E+00  0.6500000000E+00  0.4687500000E+04  0.5265625000E+04  0.1300000000E+03    2    1       388    1  0.9272877845E+00  0.3297744297E+00  0.1000000000E+01  0.1463643892E+04  0.4664887215E+04  0.3388555298E+03    1    6
        64         1        64    2  0.0000000000E+00  0.5837339254E+04      1623    3  0.0000000000E+00  0.3500000000E+00  0.6500000000E+00  0.4687500000E+04  0.5271875000E+04  0.1300000000E+03    2    1       388    1  0.8699146232E+00  0.8081170529E+00  0.1000000000E+01  0.1434957312E+04  0.4904058526E+04  0.3388555298E+03    1    6
        65         1        65    2  0.0000000000E+00  0.5831528670E+04      1623    3  0.0000000000E+00  0.4500000000E+00  0.6500000000E+00  0.4687500000E+04  0.5278125000E+04  0.1300000000E+03    2    1       269    1  0.8261532146E+00  0.2982180248E+00  0.1000000000E+01  0.1413076607E+04  0.5149109012E+04  0.3388536682E+03    1    6
        66         1        66    2  0.0000000000E+00  0.5830645350E+04      1623    3  0.0000000000E+00  0.5500000000E+00  0.6500000000E+00  0.4687500000E+04  0.5284375000E+04  0.1300000000E+03    2    1       269    1  0.8210097126E+00  0.7899854273E+00  0.1000000000E+01  0.1410504856E+04  0.5394992714E+04  0.3388536682E+03    1    6
        67         1        67    2  0.0000000000E+00  0.5847661775E+04      1623    3  0.0000000000E+00  0.6500000000E+00  0.6500000000E+00  0.4687500000E+04  0.5290625000E+04  0.1300000000E+03    2    1       198    1  0.8809078940E+00  0.2797701837E+00  0.1000000000E+01  0.1440453947E+04  0.5639885092E+04  0.3388544922E+03    1    6
        68         1        68    2  0.0000000000E+00  0.5853941090E+04      1623    3  0.0000000000E+00  0.7500000000E+00  0.6500000000E+00  0.4687500000E+04  0.5296875000E+04  0.1300000000E+03    2    1       198    1  0.9119128426E+00  0.7616855213E+00  0.1000000000E+01  0.1455956421E+04  0.5880842761E+04  0.3388544922E+03    1    6
        69         1        69    2  0.0000000000E+00  0.5868784773E+04      1623    3  0.0000000000E+00  0.8500000000E+00  0.6500000000E+00  0.4687500000E+04  0.5303125000E+04  0.1300000000E+03    2    1       164    1  0.2239846829E-02  0.2296032572E+00  0.1000000000E+01  0.1501119923E+04  0.6114801629E+04  0.3386822205E+03    1    6
        70         1        70    2  0.0000000000E+00  0.5890922556E+04      1623    3  0.0000000000E+00  0.9500000000E+00  0.6500000000E+00  0.4687500000E+04  0.5309375000E+04  0.1300000000E+03    2    1       164    1  0.1348293857E+00  0.6717874075E+00  0.1000000000E+01  0.1567414693E+04  0.6335893704E+04  0.3386822205E+03    1    6
        71         1        71    2  0.0000000000E+00  0.5103197132E+04      1623    3  0.0000000000E+00  0.5000000000E-01  0.7500000000E+00  0.4687500000E+04  0.5253125000E+04  0.1500000000E+03    2    1       460    1  0.7914362832E+00  0.6794148155E+00  0.1000000000E+01  0.1895718142E+04  0.4339707408E+04  0.3386843567E+03    1    6
        72         1        72    2  0.0000000000E+00  0.5077126139E+04      1623    3  0.0000000000E+00  0.1500000000E+00  0.7500000000E+00  0.4687500000E+04  0.5259375000E+04  0.1500000000E+03    2    1       389    1  0.6341357982E+00  0.6254041259E-01  0.1000000000E+01  0.1817067899E+04  0.4531270206E+04  0.3386792297E+03    1    6
        73         1        73    2  0.0000000000E+00  0.5071519135E+04      1623    3  0.0000000000E+00  0.2500000000E+00  0.7500000000E+00  0.4687500000E+04  0.5265625000E+04  0.1500000000E+03    2    1       389    1  0.5920389331E+00  0.4777519322E+00  0.1000000000E+01  0.1796019467E+04  0.4738875966E+04  0.3386792297E+03    1    6
        74         1        74    2  0.0000000000E+00  0.5051250453E+04      1623    3  0.0000000000E+00  0.3500000000E+00  0.7500000000E+00  0.4687500000E+04  0.5271875000E+04  0.1500000000E+03    2    1       389    1  0.5179581584E+00  0.9026257843E+00  0.1000000000E+01  0.1758979079E+04  0.4951312892E+04  0.3386792297E+03    1    6
        75         1        75    2  0.0000000000E+00  0.5046305808E+04      1623    3  0.0000000000E+00  0.4500000000E+00  0.7500000000E+00  0.4687500000E+04  0.5278125000E+04  0.1500000000E+03    2    1       270    1  0.4877944087E+00  0.3332165186E+00  0.1000000000E+01  0.1743897204E+04  0.5166608259E+04  0.3386770935E+03    1    6
        76         1        76    2  0.0000000000E+00  0.5045476634E+04      1623    3  0.0000000000E+00  0.5500000000E+00  0.7500000000E+00  0.4687500000E+04  0.5284375000E+04  0.1500000000E+03    2    1       270    1  0.4810344407E+00  0.7649506344E+00  0.1000000000E+01  0.1740517220E+04  0.5382475317E+04  0.3386770935E+03    1    6
        77         1        77    2  0.0000000000E+00  0.5052755944E+04      1623    3  0.0000000000E+00  0.6500000000E+00  0.7500000000E+00  0.4687500000E+04  0.5290625000E+04  0.1500000000E+03    2    1       199    1  0.5379568810E+00  0.1960735195E+00  0.1000000000E+01  0.1768978440E+04  0.5598036760E+04  0.3386781616E+03    1    6
        78         1        78    2  0.0000000000E+00  0.5069365051E+04      1623    3  0.0000000000E+00  0.7500000000E+00  0.7500000000E+00  0.4687500000E+04  0.5296875000E+04  0.1500000000E+03    2    1       199    1  0.5781653839E+00  0.6240276320E+00  0.1000000000E+01  0.1789082692E+04  0.5812013816E+04  0.3386781616E+03    1    6
        79         1        79    2  0.0000000000E+00  0.5082345092E+04      1623    3  0.0000000000E+00  0.8500000000E+00  0.7500000000E+00  0.4687500000E+04  0.5303125000E+04  0.1500000000E+03    2    1       164    1  0.6307008549E+00  0.3646188834E-01  0.1000000000E+01  0.1815350427E+04  0.6018230944E+04  0.3386822205E+03    1    6
        80         1        80    2  0.0000000000E+00  0.5102947088E+04      1623    3  0.0000000000E+00  0.9500000000E+00  0.7500000000E+00  0.4687500000E+04  0.5309375000E+04  0.1500000000E+03    2    1       164    1  0.7959985257E+00  0.4208303524E+00  0.1000000000E+01  0.1897999263E+04  0.6210415176E+04  0.3386822205E+03    1    6
        81         1        81    2  0.0000000000E+00  0.4396221312E+04      1623    3  0.0000000000E+00  0.5000000000E-01  0.8500000000E+00  0.4687500000E+04  0.5253125000E+04  0.1700000000E+03    2    1       390    1  0.5093371328E+00  0.1813523942E-01  0.1000000000E+01  0.2254668566E+04  0.4509067620E+04  0.3384403687E+03    1    6
        82         1        82    2  0.0000000000E+00  0.4387252335E+04      1623    3  0.0000000000E+00  0.1500000000E+00  0.8500000000E+00  0.4687500000E+04  0.5259375000E+04  0.1700000000E+03    2    1       390    1  0.4076324020E+00  0.3285022815E+00  0.1000000000E+01  0.2203816201E+04  0.4664251141E+04  0.3384403687E+03    1    6
        83         1        83    2  0.0000000000E+00  0.4382235057E+04      1623    3  0.0000000000E+00  0.2500000000E+00  0.8500000000E+00  0.4687500000E+04  0.5265625000E+04  0.1700000000E+03    2    1       390    1  0.3523913073E+00  0.6714012012E+00  0.1000000000E+01  0.2176195654E+04  0.4835700601E+04  0.3384403687E+03    1    6
        84         1        84    2  0.0000000000E+00  0.4368219277E+04      1623    3  0.0000000000E+00  0.3500000000E+00  0.8500000000E+00  0.4687500000E+04  0.5271875000E+04  0.1700000000E+03    2    1       271    1  0.2693661383E+00  0.1900345353E-01  0.1000000000E+01  0.2134683069E+04  0.5009501727E+04  0.3384378052E+03    1    6
        85         1        85    2  0.0000000000E+00  0.4367574554E+04      1623    3  0.0000000000E+00  0.4500000000E+00  0.8500000000E+00  0.4687500000E+04  0.5278125000E+04  0.1700000000E+03    2    1       271    1  0.2616741229E+00  0.3744259261E+00  0.1000000000E+01  0.2130837061E+04  0.5187212963E+04  0.3384378052E+03    1    6
        86         1        86    2  0.0000000000E+00  0.4366676508E+04      1623    3  0.0000000000E+00  0.5500000000E+00  0.8500000000E+00  0.4687500000E+04  0.5284375000E+04  0.1700000000E+03    2    1       271    1  0.2524424623E+00  0.7326803139E+00  0.1000000000E+01  0.2126221231E+04  0.5366340157E+04  0.3384378052E+03    1    6
        87         1        87    2  0.0000000000E+00  0.4374675867E+04      1623    3  0.0000000000E+00  0.6500000000E+00  0.8500000000E+00  0.4687500000E+04  0.5290625000E+04  0.1700000000E+03    2    1       200    1  0.2906275899E+00  0.8789545966E-01  0.1000000000E+01  0.2145313795E+04  0.5543947730E+04  0.3384391785E+03    1    6