MODPATH SAMPLE PROBLEM:
   TRANSIENT FLOW EXAMPLE
         5        27        27         3         4
 11 12 00 14 00 00 00 18 19 00 00 22
         0         0
         0         1
         0         1
         0         1
         0         1
         0         1
     999.9
       -65        1.
       -65        1.
       -65        1.
       -65        1.
       -65        1.
  182500.0         1       1.0   period 1: 500 years, 1 time step
   10950.0         8       2.0   period 2:  30 years, 8 time steps
  456250.0         1       1.0   period 3: 500 years, 1 time step

