MODPATH SAMPLE PROBLEM

         5        27        27         1         4
 11 12 00 14 00 00 00 18 19 00 00 22
         0         0
         0         1
         0         1
         0         1
         0         1
         0         1
     999.9
         0      280.
         0      280.
         0      280.
         0      280.
         0      280.
       1.0         1       1.0
