@ [ MODPATH Version 4.00 (V4, Release 1, 2-2000) [PC] (TREF=   0.000000E+00 ) ]
  1    1   21    1  1.12185E+02  2.59215E+03  3.02653E+02  1.00000E+00  6.55484E+04  4.01000E+03  4.01286E+03  7.14286E-02   14   14    4   2     1     11  0.00000E+00
  1    1   21    1  3.29731E+02  2.68049E+03  3.02653E+02  1.00000E+00  4.36500E+04  4.01000E+03  4.01286E+03  2.14286E-01   14   14    4   2     1     11  0.00000E+00
  1    2   21    1  5.56123E+02  2.78731E+03  3.02576E+02  1.00000E+00  3.25226E+04  4.01000E+03  4.01286E+03  3.57143E-01   14   14    4   2     1     11  0.00000E+00
  1    2   20    1  7.99191E+02  2.91687E+03  3.02560E+02  1.00000E+00  2.54321E+04  4.01000E+03  4.01286E+03  5.00000E-01   14   14    4   2     1     11  0.00000E+00
  1    3   20    1  1.04941E+03  3.07920E+03  3.02403E+02  1.00000E+00  2.02839E+04  4.01000E+03  4.01286E+03  6.42857E-01   14   14    4   2     1     11  0.00000E+00
  1    4   19    1  1.34050E+03  3.28395E+03  3.02153E+02  1.00000E+00  1.60281E+04  4.01000E+03  4.01286E+03  7.85714E-01   14   14    4   2     1     11  0.00000E+00
  1    5   18    1  1.72392E+03  3.57591E+03  3.01827E+02  1.00000E+00  1.23310E+04  4.01000E+03  4.01286E+03  9.28571E-01   14   14    4   2     1     11  0.00000E+00
  1    1   20    1  9.74505E+01  3.02221E+03  3.02639E+02  1.00000E+00  6.48079E+04  4.01000E+03  4.01857E+03  7.14286E-02   14   14    4   2     1     11  0.00000E+00
  1    1   20    1  2.96533E+02  3.09807E+03  3.02639E+02  1.00000E+00  4.29577E+04  4.01000E+03  4.01857E+03  2.14286E-01   14   14    4   2     1     11  0.00000E+00
  1    2   20    1  5.02674E+02  3.16276E+03  3.02560E+02  1.00000E+00  3.23171E+04  4.01000E+03  4.01857E+03  3.57143E-01   14   14    4   2     1     11  0.00000E+00
  1    2   19    1  7.30285E+02  3.25666E+03  3.02550E+02  1.00000E+00  2.53668E+04  4.01000E+03  4.01857E+03  5.00000E-01   14   14    4   2     1     11  0.00000E+00
  1    3   19    1  9.84230E+02  3.35915E+03  3.02391E+02  1.00000E+00  2.02900E+04  4.01000E+03  4.01857E+03  6.42857E-01   14   14    4   2     1     11  0.00000E+00
  1    4   18    1  1.27429E+03  3.51240E+03  3.02147E+02  1.00000E+00  1.60806E+04  4.01000E+03  4.01857E+03  7.85714E-01   14   14    4   2     1     11  0.00000E+00
  1    5   17    1  1.67319E+03  3.72014E+03  3.01823E+02  1.00000E+00  1.23702E+04  4.01000E+03  4.01857E+03  9.28571E-01   14   14    4   2     1     11  0.00000E+00
  1    1   18    1  9.18552E+01  3.54056E+03  3.02625E+02  1.00000E+00  6.32090E+04  4.01000E+03  4.02429E+03  7.14286E-02   14   14    4   2     1     11  0.00000E+00
  1    1   18    1  2.75442E+02  3.54891E+03  3.02625E+02  1.00000E+00  4.23780E+04  4.01000E+03  4.02429E+03  2.14286E-01   14   14    4   2     1     11  0.00000E+00
  1    2   18    1  4.69735E+02  3.57841E+03  3.02545E+02  1.00000E+00  3.21522E+04  4.01000E+03  4.02429E+03  3.57143E-01   14   14    4   2     1     11  0.00000E+00
  1    2   18    1  6.84166E+02  3.62709E+03  3.02545E+02  1.00000E+00  2.54240E+04  4.01000E+03  4.02429E+03  5.00000E-01   14   14    4   2     1     11  0.00000E+00
  1    3   18    1  9.26115E+02  3.68410E+03  3.02386E+02  1.00000E+00  2.04103E+04  4.01000E+03  4.02429E+03  6.42857E-01   14   14    4   2     1     11  0.00000E+00
  1    4   17    1  1.21559E+03  3.76204E+03  3.02144E+02  1.00000E+00  1.63406E+04  4.01000E+03  4.02429E+03  7.85714E-01   14   14    4   2     1     11  0.00000E+00
  1    5   16    1  1.61749E+03  3.87963E+03  3.01822E+02  1.00000E+00  1.25749E+04  4.01000E+03  4.02429E+03  9.28571E-01   14   14    4   2     1     11  0.00000E+00
  1    1   14    1  9.18774E+01  4.03038E+03  3.02622E+02  1.00000E+00  6.24121E+04  4.01000E+03  4.03000E+03  7.14286E-02   14   14    4   2     1     11  0.00000E+00
  1    1   14    1  2.72729E+02  4.03034E+03  3.02622E+02  1.00000E+00  4.18645E+04  4.01000E+03  4.03000E+03  2.14286E-01   14   14    4   2     1     11  0.00000E+00
  1    2   14    1  4.58473E+02  4.03033E+03  3.02542E+02  1.00000E+00  3.20185E+04  4.01000E+03  4.03000E+03  3.57143E-01   14   14    4   2     1     11  0.00000E+00
  1    2   14    1  6.65027E+02  4.03032E+03  3.02542E+02  1.00000E+00  2.54857E+04  4.01000E+03  4.03000E+03  5.00000E-01   14   14    4   2     1     11  0.00000E+00
  1    3   14    1  9.00279E+02  4.03032E+03  3.02382E+02  1.00000E+00  2.05850E+04  4.01000E+03  4.03000E+03  6.42857E-01   14   14    4   2     1     11  0.00000E+00
  1    3   14    1  1.18480E+03  4.03032E+03  3.02382E+02  1.00000E+00  1.65373E+04  4.01000E+03  4.03000E+03  7.85714E-01   14   14    4   2     1     11  0.00000E+00
  1    4   14    1  1.59989E+03  4.03032E+03  3.02142E+02  1.00000E+00  1.26403E+04  4.01000E+03  4.03000E+03  9.28571E-01   14   14    4   2     1     11  0.00000E+00
  1    1   10    1  9.18811E+01  4.52041E+03  3.02625E+02  1.00000E+00  6.32057E+04  4.01000E+03  4.03571E+03  7.14286E-02   14   14    4   2     1     11  0.00000E+00
  1    1   10    1  2.75495E+02  4.51187E+03  3.02625E+02  1.00000E+00  4.23759E+04  4.01000E+03  4.03571E+03  2.14286E-01   14   14    4   2     1     11  0.00000E+00
  1    2   10    1  4.69798E+02  4.48229E+03  3.02545E+02  1.00000E+00  3.21510E+04  4.01000E+03  4.03571E+03  3.57143E-01   14   14    4   2     1     11  0.00000E+00
  1    2   10    1  6.84231E+02  4.43355E+03  3.02545E+02  1.00000E+00  2.54233E+04  4.01000E+03  4.03571E+03  5.00000E-01   14   14    4   2     1     11  0.00000E+00
  1    3   10    1  9.26167E+02  4.37652E+03  3.02386E+02  1.00000E+00  2.04101E+04  4.01000E+03  4.03571E+03  6.42857E-01   14   14    4   2     1     11  0.00000E+00
  1    4   11    1  1.21563E+03  4.29857E+03  3.02144E+02  1.00000E+00  1.63405E+04  4.01000E+03  4.03571E+03  7.85714E-01   14   14    4   2     1     11  0.00000E+00
  1    5   12    1  1.61751E+03  4.18099E+03  3.01822E+02  1.00000E+00  1.25748E+04  4.01000E+03  4.03571E+03  9.28571E-01   14   14    4   2     1     11  0.00000E+00
  1    1    8    1  9.75036E+01  5.03876E+03  3.02639E+02  1.00000E+00  6.48027E+04  4.01000E+03  4.04143E+03  7.14286E-02   14   14    4   2     1     11  0.00000E+00
  1    1    8    1  2.96644E+02  4.96264E+03  3.02639E+02  1.00000E+00  4.29547E+04  4.01000E+03  4.04143E+03  2.14286E-01   14   14    4   2     1     11  0.00000E+00
  1    2    8    1  5.02797E+02  4.89786E+03  3.02560E+02  1.00000E+00  3.23154E+04  4.01000E+03  4.04143E+03  3.57143E-01   14   14    4   2     1     11  0.00000E+00
  1    2    9    1  7.30368E+02  4.80391E+03  3.02550E+02  1.00000E+00  2.53657E+04  4.01000E+03  4.04143E+03  5.00000E-01   14   14    4   2     1     11  0.00000E+00
  1    3    9    1  9.84313E+02  4.70139E+03  3.02392E+02  1.00000E+00  2.02895E+04  4.01000E+03  4.04143E+03  6.42857E-01   14   14    4   2     1     11  0.00000E+00
  1    4   10    1  1.27434E+03  4.54814E+03  3.02147E+02  1.00000E+00  1.60803E+04  4.01000E+03  4.04143E+03  7.85714E-01   14   14    4   2     1     11  0.00000E+00
  1    5   11    1  1.67322E+03  4.34044E+03  3.01823E+02  1.00000E+00  1.23701E+04  4.01000E+03  4.04143E+03  9.28571E-01   14   14    4   2     1     11  0.00000E+00
  1    1    7    1  1.12253E+02  5.46865E+03  3.02654E+02  1.00000E+00  6.55421E+04  4.01000E+03  4.04714E+03  7.14286E-02   14   14    4   2     1     11  0.00000E+00
  1    1    7    1  3.29861E+02  5.38008E+03  3.02654E+02  1.00000E+00  4.36463E+04  4.01000E+03  4.04714E+03  2.14286E-01   14   14    4   2     1     11  0.00000E+00
  1    2    7    1  5.56264E+02  5.27318E+03  3.02576E+02  1.00000E+00  3.25204E+04  4.01000E+03  4.04714E+03  3.57143E-01   14   14    4   2     1     11  0.00000E+00
  1    2    8    1  7.99297E+02  5.14359E+03  3.02560E+02  1.00000E+00  2.54308E+04  4.01000E+03  4.04714E+03  5.00000E-01   14   14    4   2     1     11  0.00000E+00
  1    3    8    1  1.04951E+03  4.98125E+03  3.02403E+02  1.00000E+00  2.02832E+04  4.01000E+03  4.04714E+03  6.42857E-01   14   14    4   2     1     11  0.00000E+00
  1    4    9    1  1.34057E+03  4.77651E+03  3.02153E+02  1.00000E+00  1.60278E+04  4.01000E+03  4.04714E+03  7.85714E-01   14   14    4   2     1     11  0.00000E+00
  1    5   10    1  1.72397E+03  4.48461E+03  3.01827E+02  1.00000E+00  1.23308E+04  4.01000E+03  4.04714E+03  9.28571E-01   14   14    4   2     1     11  0.00000E+00
  1    1   26    1  3.63521E+02  7.11874E+02  3.02727E+02  1.00000E+00  8.01484E+04  4.05000E+03  4.01286E+03  7.14286E-02   14   14    4   2     1     11  0.00000E+00
  1    3   25    1  1.04397E+03  9.52992E+02  3.02495E+02  1.00000E+00  5.15179E+04  4.05000E+03  4.01286E+03  2.14286E-01   14   14    4   2     1     11  0.00000E+00
  1    5   24    1  1.69890E+03  1.30301E+03  3.01955E+02  1.00000E+00  3.60734E+04  4.05000E+03  4.01286E+03  3.57143E-01   14   14    4   2     1     11  0.00000E+00
  1    6   23    1  2.11052E+03  1.77097E+03  3.01550E+02  1.00000E+00  2.66978E+04  4.05000E+03  4.01286E+03  5.00000E-01   14   14    4   2     1     11  0.00000E+00
  1    6   22    1  2.36452E+03  2.29628E+03  3.01518E+02  1.00000E+00  1.95074E+04  4.05000E+03  4.01286E+03  6.42857E-01   14   14    4   2     1     11  0.00000E+00
  1    7   20    1  2.48800E+03  2.85397E+03  3.00981E+02  1.00000E+00  1.46983E+04  4.05000E+03  4.01286E+03  7.85714E-01   14   14    4   2     1     11  0.00000E+00
  1    7   19    1  2.44306E+03  3.41725E+03  3.00956E+02  1.00000E+00  1.12472E+04  4.05000E+03  4.01286E+03  9.28571E-01   14   14    4   2     1     11  0.00000E+00
  1    2   26    1  4.70874E+02  6.33568E+02  3.02654E+02  1.00000E+00  8.17718E+04  4.05000E+03  4.01857E+03  7.14286E-02   14   14    4   2     1     11  0.00000E+00
  1    4   25    1  1.28943E+03  9.35364E+02  3.02273E+02  1.00000E+00  5.35582E+04  4.05000E+03  4.01857E+03  2.14286E-01   14   14    4   2     1     11  0.00000E+00
  1    5   24    1  1.99629E+03  1.40702E+03  3.01955E+02  1.00000E+00  3.81870E+04  4.05000E+03  4.01857E+03  3.57143E-01   14   14    4   2     1     11  0.00000E+00
  1    7   22    1  2.40827E+03  2.00944E+03  3.01055E+02  1.00000E+00  2.76625E+04  4.05000E+03  4.01857E+03  5.00000E-01   14   14    4   2     1     11  0.00000E+00
  1    7   21    1  2.58860E+03  2.59524E+03  3.01017E+02  1.00000E+00  1.97488E+04  4.05000E+03  4.01857E+03  6.42857E-01   14   14    4   2     1     11  0.00000E+00
  1    7   20    1  2.67714E+03  3.13231E+03  3.00981E+02  1.00000E+00  1.48021E+04  4.05000E+03  4.01857E+03  7.85714E-01   14   14    4   2     1     11  0.00000E+00
  1    7   18    1  2.56553E+03  3.58393E+03  3.00944E+02  1.00000E+00  1.08066E+04  4.05000E+03  4.01857E+03  9.28571E-01   14   14    4   2     1     11  0.00000E+00
  1    2   26    1  6.60647E+02  6.00001E+02  3.02654E+02  1.00000E+00  8.81756E+04  4.05000E+03  4.02429E+03  7.14286E-02   14   14    4   2     1     11  0.00000E+00
  1    5   25    1  1.64942E+03  1.01350E+03  3.01975E+02  1.00000E+00  5.87318E+04  4.05000E+03  4.02429E+03  2.14286E-01   14   14    4   2     1     11  0.00000E+00
  1    6   23    1  2.38987E+03  1.75500E+03  3.01550E+02  1.00000E+00  4.11001E+04  4.05000E+03  4.02429E+03  3.57143E-01   14   14    4   2     1     11  0.00000E+00
  1    7   21    1  2.72452E+03  2.54300E+03  3.01017E+02  1.00000E+00  2.78975E+04  4.05000E+03  4.02429E+03  5.00000E-01   14   14    4   2     1     11  0.00000E+00
  1    8   20    1  2.85913E+03  3.12220E+03  3.00426E+02  1.00000E+00  2.06226E+04  4.05000E+03  4.02429E+03  6.42857E-01   14   14    4   2     1     11  0.00000E+00
  1    8   19    1  2.84117E+03  3.49359E+03  3.00396E+02  1.00000E+00  1.42367E+04  4.05000E+03  4.02429E+03  7.85714E-01   14   14    4   2     1     11  0.00000E+00
  1    7   17    1  2.65538E+03  3.80883E+03  3.00938E+02  1.00000E+00  1.08320E+04  4.05000E+03  4.02429E+03  9.28571E-01   14   14    4   2     1     11  0.00000E+00
  1    8   12    1  3.14283E+03  4.11819E+03  3.00371E+02  1.00000E+00  1.49057E+05  4.05000E+03  4.03000E+03  7.14286E-02   14   14    4   2     1     11  0.00000E+00
  1    8   14    1  3.14394E+03  4.03199E+03  3.00370E+02  1.00000E+00  8.32574E+04  4.05000E+03  4.03000E+03  2.14286E-01   14   14    4   2     1     11  0.00000E+00
  1    8   14    1  3.13567E+03  4.03053E+03  3.00370E+02  1.00000E+00  4.07966E+04  4.05000E+03  4.03000E+03  3.57143E-01   14   14    4   2     1     11  0.00000E+00
  1    8   14    1  3.10636E+03  4.03032E+03  3.00370E+02  1.00000E+00  3.01871E+04  4.05000E+03  4.03000E+03  5.00000E-01   14   14    4   2     1     11  0.00000E+00
  1    8   14    1  3.04337E+03  4.03028E+03  3.00370E+02  1.00000E+00  1.94363E+04  4.05000E+03  4.03000E+03  6.42857E-01   14   14    4   2     1     11  0.00000E+00
  1    8   14    1  2.92686E+03  4.03026E+03  3.00370E+02  1.00000E+00  1.48904E+04  4.05000E+03  4.03000E+03  7.85714E-01   14   14    4   2     1     11  0.00000E+00
  1    7   14    1  2.69277E+03  4.03028E+03  3.00935E+02  1.00000E+00  1.08023E+04  4.05000E+03  4.03000E+03  9.28571E-01   14   14    4   2     1     11  0.00000E+00
  1    2    2    1  6.60666E+02  7.45984E+03  3.02654E+02  1.00000E+00  8.81541E+04  4.05000E+03  4.03571E+03  7.14286E-02   14   14    4   2     1     11  0.00000E+00
  1    5    3    1  1.64934E+03  7.04634E+03  3.01976E+02  1.00000E+00  5.87219E+04  4.05000E+03  4.03571E+03  2.14286E-01   14   14    4   2     1     11  0.00000E+00
  1    6    5    1  2.38964E+03  6.30499E+03  3.01550E+02  1.00000E+00  4.10962E+04  4.05000E+03  4.03571E+03  3.57143E-01   14   14    4   2     1     11  0.00000E+00
  1    7    7    1  2.72430E+03  5.51716E+03  3.01017E+02  1.00000E+00  2.78981E+04  4.05000E+03  4.03571E+03  5.00000E-01   14   14    4   2     1     11  0.00000E+00
  1    8    8    1  2.85884E+03  4.93806E+03  3.00427E+02  1.00000E+00  2.06233E+04  4.05000E+03  4.03571E+03  6.42857E-01   14   14    4   2     1     11  0.00000E+00
  1    8    9    1  2.84109E+03  4.56676E+03  3.00396E+02  1.00000E+00  1.42369E+04  4.05000E+03  4.03571E+03  7.85714E-01   14   14    4   2     1     11  0.00000E+00
  1    7   11    1  2.65534E+03  4.25169E+03  3.00938E+02  1.00000E+00  1.08321E+04  4.05000E+03  4.03571E+03  9.28571E-01   14   14    4   2     1     11  0.00000E+00
  1    2    2    1  4.70940E+02  7.42626E+03  3.02654E+02  1.00000E+00  8.17615E+04  4.05000E+03  4.04143E+03  7.14286E-02   14   14    4   2     1     11  0.00000E+00
  1    4    3    1  1.28943E+03  7.12446E+03  3.02273E+02  1.00000E+00  5.35529E+04  4.05000E+03  4.04143E+03  2.14286E-01   14   14    4   2     1     11  0.00000E+00
  1    5    4    1  1.99616E+03  6.65286E+03  3.01955E+02  1.00000E+00  3.81849E+04  4.05000E+03  4.04143E+03  3.57143E-01   14   14    4   2     1     11  0.00000E+00
  1    7    6    1  2.40808E+03  6.05055E+03  3.01056E+02  1.00000E+00  2.76606E+04  4.05000E+03  4.04143E+03  5.00000E-01   14   14    4   2     1     11  0.00000E+00
  1    7    7    1  2.58842E+03  5.46487E+03  3.01017E+02  1.00000E+00  1.97490E+04  4.05000E+03  4.04143E+03  6.42857E-01   14   14    4   2     1     11  0.00000E+00
  1    7    8    1  2.67694E+03  4.92791E+03  3.00981E+02  1.00000E+00  1.48024E+04  4.05000E+03  4.04143E+03  7.85714E-01   14   14    4   2     1     11  0.00000E+00
  1    7   10    1  2.56547E+03  4.47649E+03  3.00944E+02  1.00000E+00  1.08066E+04  4.05000E+03  4.04143E+03  9.28571E-01   14   14    4   2     1     11  0.00000E+00
  1    1    2    1  3.63588E+02  7.34795E+03  3.02728E+02  1.00000E+00  8.01379E+04  4.05000E+03  4.04714E+03  7.14286E-02   14   14    4   2     1     11  0.00000E+00
  1    3    3    1  1.04401E+03  7.10684E+03  3.02496E+02  1.00000E+00  5.15125E+04  4.05000E+03  4.04714E+03  2.14286E-01   14   14    4   2     1     11  0.00000E+00
  1    5    4    1  1.69885E+03  6.75684E+03  3.01955E+02  1.00000E+00  3.60709E+04  4.05000E+03  4.04714E+03  3.57143E-01   14   14    4   2     1     11  0.00000E+00
  1    6    5    1  2.11039E+03  6.28895E+03  3.01550E+02  1.00000E+00  2.66969E+04  4.05000E+03  4.04714E+03  5.00000E-01   14   14    4   2     1     11  0.00000E+00
  1    6    6    1  2.36435E+03  5.76375E+03  3.01518E+02  1.00000E+00  1.95070E+04  4.05000E+03  4.04714E+03  6.42857E-01   14   14    4   2     1     11  0.00000E+00
  1    7    8    1  2.48788E+03  5.20620E+03  3.00981E+02  1.00000E+00  1.46983E+04  4.05000E+03  4.04714E+03  7.85714E-01   14   14    4   2     1     11  0.00000E+00
  1    7    9    1  2.44300E+03  4.64310E+03  3.00956E+02  1.00000E+00  1.12472E+04  4.05000E+03  4.04714E+03  9.28571E-01   14   14    4   2     1     11  0.00000E+00
  1    1   22    1  1.33709E+02  2.17645E+03  3.02670E+02  1.00000E+00  6.67278E+04  4.01286E+03  4.01000E+03  7.14286E-02   14   14    4   2     1     11  0.00000E+00
  1    1   22    1  3.71705E+02  2.33816E+03  3.02670E+02  1.00000E+00  4.42018E+04  4.01286E+03  4.01000E+03  2.14286E-01   14   14    4   2     1     11  0.00000E+00
  1    2   21    1  6.27278E+02  2.45610E+03  3.02576E+02  1.00000E+00  3.27664E+04  4.01286E+03  4.01000E+03  3.57143E-01   14   14    4   2     1     11  0.00000E+00
  1    3   21    1  8.82928E+02  2.61147E+03  3.02420E+02  1.00000E+00  2.55264E+04  4.01286E+03  4.01000E+03  5.00000E-01   14   14    4   2     1     11  0.00000E+00
  1    3   20    1  1.14195E+03  2.80962E+03  3.02403E+02  1.00000E+00  2.00857E+04  4.01286E+03  4.01000E+03  6.42857E-01   14   14    4   2     1     11  0.00000E+00
  1    4   20    1  1.43177E+03  3.05857E+03  3.02167E+02  1.00000E+00  1.59661E+04  4.01286E+03  4.01000E+03  7.85714E-01   14   14    4   2     1     11  0.00000E+00
  1    5   19    1  1.78571E+03  3.45805E+03  3.01835E+02  1.00000E+00  1.21925E+04  4.01286E+03  4.01000E+03  9.28571E-01   14   14    4   2     1     11  0.00000E+00
  1    1   23    1  1.65488E+02  1.86771E+03  3.02688E+02  1.00000E+00  6.66389E+04  4.01857E+03  4.01000E+03  7.14286E-02   14   14    4   2     1     11  0.00000E+00
  1    2   22    1  4.44094E+02  2.03325E+03  3.02594E+02  1.00000E+00  4.40043E+04  4.01857E+03  4.01000E+03  2.14286E-01   14   14    4   2     1     11  0.00000E+00
  1    2   22    1  7.20899E+02  2.15976E+03  3.02594E+02  1.00000E+00  3.28941E+04  4.01857E+03  4.01000E+03  3.57143E-01   14   14    4   2     1     11  0.00000E+00
  1    3   22    1  9.78201E+02  2.34270E+03  3.02440E+02  1.00000E+00  2.56128E+04  4.01857E+03  4.01000E+03  5.00000E-01   14   14    4   2     1     11  0.00000E+00
  1    4   21    1  1.24564E+03  2.57283E+03  3.02187E+02  1.00000E+00  2.02872E+04  4.01857E+03  4.01000E+03  6.42857E-01   14   14    4   2     1     11  0.00000E+00
  1    4   20    1  1.52819E+03  2.86287E+03  3.02167E+02  1.00000E+00  1.59252E+04  4.01857E+03  4.01000E+03  7.85714E-01   14   14    4   2     1     11  0.00000E+00
  1    5   19    1  1.84601E+03  3.31749E+03  3.01835E+02  1.00000E+00  1.22246E+04  4.01857E+03  4.01000E+03  9.28571E-01   14   14    4   2     1     11  0.00000E+00
  1    1   24    1  1.97440E+02  1.59074E+03  3.02704E+02  1.00000E+00  6.73460E+04  4.02429E+03  4.01000E+03  7.14286E-02   14   14    4   2     1     11  0.00000E+00
  1    2   23    1  5.22060E+02  1.75797E+03  3.02612E+02  1.00000E+00  4.44397E+04  4.02429E+03  4.01000E+03  2.14286E-01   14   14    4   2     1     11  0.00000E+00
  1    3   23    1  8.22528E+02  1.89736E+03  3.02461E+02  1.00000E+00  3.31572E+04  4.02429E+03  4.01000E+03  3.57143E-01   14   14    4   2     1     11  0.00000E+00
  1    3   22    1  1.10061E+03  2.09250E+03  3.02440E+02  1.00000E+00  2.58643E+04  4.02429E+03  4.01000E+03  5.00000E-01   14   14    4   2     1     11  0.00000E+00
  1    4   22    1  1.35530E+03  2.35165E+03  3.02210E+02  1.00000E+00  2.04926E+04  4.02429E+03  4.01000E+03  6.42857E-01   14   14    4   2     1     11  0.00000E+00
  1    5   21    1  1.61761E+03  2.68534E+03  3.01875E+02  1.00000E+00  1.62231E+04  4.02429E+03  4.01000E+03  7.85714E-01   14   14    4   2     1     11  0.00000E+00
  1    5   19    1  1.92662E+03  3.21489E+03  3.01835E+02  1.00000E+00  1.21803E+04  4.02429E+03  4.01000E+03  9.28571E-01   14   14    4   2     1     11  0.00000E+00
  1    1   24    1  2.34556E+02  1.37660E+03  3.02704E+02  1.00000E+00  6.80203E+04  4.03000E+03  4.01000E+03  7.14286E-02   14   14    4   2     1     11  0.00000E+00
  1    2   24    1  6.11313E+02  1.52547E+03  3.02629E+02  1.00000E+00  4.46967E+04  4.03000E+03  4.01000E+03  2.14286E-01   14   14    4   2     1     11  0.00000E+00
  1    3   23    1  9.51010E+02  1.67240E+03  3.02461E+02  1.00000E+00  3.33868E+04  4.03000E+03  4.01000E+03  3.57143E-01   14   14    4   2     1     11  0.00000E+00
  1    4   23    1  1.24163E+03  1.88918E+03  3.02233E+02  1.00000E+00  2.60950E+04  4.03000E+03  4.01000E+03  5.00000E-01   14   14    4   2     1     11  0.00000E+00
  1    4   22    1  1.50476E+03  2.17800E+03  3.02210E+02  1.00000E+00  2.06425E+04  4.03000E+03  4.01000E+03  6.42857E-01   14   14    4   2     1     11  0.00000E+00
  1    5   21    1  1.74283E+03  2.55704E+03  3.01875E+02  1.00000E+00  1.62890E+04  4.03000E+03  4.01000E+03  7.85714E-01   14   14    4   2     1     11  0.00000E+00
  1    6   20    1  2.01015E+03  3.13891E+03  3.01456E+02  1.00000E+00  1.21424E+04  4.03000E+03  4.01000E+03  9.28571E-01   14   14    4   2     1     11  0.00000E+00
  1    1   25    1  2.53423E+02  1.18497E+03  3.02718E+02  1.00000E+00  7.05204E+04  4.03571E+03  4.01000E+03  7.14286E-02   14   14    4   2     1     11  0.00000E+00
  1    2   24    1  6.83069E+02  1.32239E+03  3.02629E+02  1.00000E+00  4.64109E+04  4.03571E+03  4.01000E+03  2.14286E-01   14   14    4   2     1     11  0.00000E+00
  1    3   24    1  1.08910E+03  1.48626E+03  3.02480E+02  1.00000E+00  3.39902E+04  4.03571E+03  4.01000E+03  3.57143E-01   14   14    4   2     1     11  0.00000E+00
  1    4   23    1  1.42137E+03  1.74360E+03  3.02233E+02  1.00000E+00  2.61211E+04  4.03571E+03  4.01000E+03  5.00000E-01   14   14    4   2     1     11  0.00000E+00
  1    5   22    1  1.69167E+03  2.08282E+03  3.01903E+02  1.00000E+00  2.03567E+04  4.03571E+03  4.01000E+03  6.42857E-01   14   14    4   2     1     11  0.00000E+00
  1    5   21    1  1.91973E+03  2.52104E+03  3.01875E+02  1.00000E+00  1.58202E+04  4.03571E+03  4.01000E+03  7.85714E-01   14   14    4   2     1     11  0.00000E+00
  1    6   20    1  2.11128E+03  3.13672E+03  3.01456E+02  1.00000E+00  1.19130E+04  4.03571E+03  4.01000E+03  9.28571E-01   14   14    4   2     1     11  0.00000E+00
  1    1   25    1  2.72558E+02  9.89827E+02  3.02718E+02  1.00000E+00  7.45420E+04  4.04143E+03  4.01000E+03  7.14286E-02   14   14    4   2     1     11  0.00000E+00
  1    2   25    1  7.57744E+02  1.15551E+03  3.02644E+02  1.00000E+00  4.83809E+04  4.04143E+03  4.01000E+03  2.14286E-01   14   14    4   2     1     11  0.00000E+00
  1    4   24    1  1.26381E+03  1.36583E+03  3.02255E+02  1.00000E+00  3.44102E+04  4.04143E+03  4.01000E+03  3.57143E-01   14   14    4   2     1     11  0.00000E+00
  1    5   23    1  1.63273E+03  1.67927E+03  3.01930E+02  1.00000E+00  2.59596E+04  4.04143E+03  4.01000E+03  5.00000E-01   14   14    4   2     1     11  0.00000E+00
  1    5   22    1  1.90244E+03  2.06906E+03  3.01903E+02  1.00000E+00  2.00365E+04  4.04143E+03  4.01000E+03  6.42857E-01   14   14    4   2     1     11  0.00000E+00
  1    6   21    1  2.10397E+03  2.56399E+03  3.01485E+02  1.00000E+00  1.53437E+04  4.04143E+03  4.01000E+03  7.85714E-01   14   14    4   2     1     11  0.00000E+00
  1    6   19    1  2.24309E+03  3.20241E+03  3.01436E+02  1.00000E+00  1.14917E+04  4.04143E+03  4.01000E+03  9.28571E-01   14   14    4   2     1     11  0.00000E+00
  1    1   25    1  3.06734E+02  8.42100E+02  3.02718E+02  1.00000E+00  7.72563E+04  4.04714E+03  4.01000E+03  7.14286E-02   14   14    4   2     1     11  0.00000E+00
  1    3   25    1  8.81733E+02  1.03328E+03  3.02495E+02  1.00000E+00  4.97610E+04  4.04714E+03  4.01000E+03  2.14286E-01   14   14    4   2     1     11  0.00000E+00
  1    4   24    1  1.45923E+03  1.29780E+03  3.02255E+02  1.00000E+00  3.50756E+04  4.04714E+03  4.01000E+03  3.57143E-01   14   14    4   2     1     11  0.00000E+00
  1    5   23    1  1.86054E+03  1.67855E+03  3.01930E+02  1.00000E+00  2.61071E+04  4.04714E+03  4.01000E+03  5.00000E-01   14   14    4   2     1     11  0.00000E+00
  1    6   22    1  2.13004E+03  2.14193E+03  3.01518E+02  1.00000E+00  1.97619E+04  4.04714E+03  4.01000E+03  6.42857E-01   14   14    4   2     1     11  0.00000E+00
  1    6   21    1  2.27446E+03  2.65697E+03  3.01485E+02  1.00000E+00  1.51889E+04  4.04714E+03  4.01000E+03  7.85714E-01   14   14    4   2     1     11  0.00000E+00
  1    6   19    1  2.35379E+03  3.30706E+03  3.01436E+02  1.00000E+00  1.12628E+04  4.04714E+03  4.01000E+03  9.28571E-01   14   14    4   2     1     11  0.00000E+00
  1    1    6    1  1.33786E+02  5.88409E+03  3.02671E+02  1.00000E+00  6.67206E+04  4.01286E+03  4.05000E+03  7.14286E-02   14   14    4   2     1     11  0.00000E+00
  1    1    6    1  3.71839E+02  5.72225E+03  3.02671E+02  1.00000E+00  4.41977E+04  4.01286E+03  4.05000E+03  2.14286E-01   14   14    4   2     1     11  0.00000E+00
  1    2    7    1  6.27395E+02  5.60425E+03  3.02576E+02  1.00000E+00  3.27639E+04  4.01286E+03  4.05000E+03  3.57143E-01   14   14    4   2     1     11  0.00000E+00
  1    3    7    1  8.83034E+02  5.44887E+03  3.02421E+02  1.00000E+00  2.55250E+04  4.01286E+03  4.05000E+03  5.00000E-01   14   14    4   2     1     11  0.00000E+00
  1    3    8    1  1.14203E+03  5.25073E+03  3.02403E+02  1.00000E+00  2.00850E+04  4.01286E+03  4.05000E+03  6.42857E-01   14   14    4   2     1     11  0.00000E+00
  1    4    8    1  1.43185E+03  5.00180E+03  3.02167E+02  1.00000E+00  1.59657E+04  4.01286E+03  4.05000E+03  7.85714E-01   14   14    4   2     1     11  0.00000E+00
  1    5    9    1  1.78572E+03  4.60242E+03  3.01835E+02  1.00000E+00  1.21926E+04  4.01286E+03  4.05000E+03  9.28571E-01   14   14    4   2     1     11  0.00000E+00
  1    1    5    1  1.65571E+02  6.19262E+03  3.02688E+02  1.00000E+00  6.66311E+04  4.01857E+03  4.05000E+03  7.14286E-02   14   14    4   2     1     11  0.00000E+00
  1    2    6    1  4.44214E+02  6.02700E+03  3.02594E+02  1.00000E+00  4.39999E+04  4.01857E+03  4.05000E+03  2.14286E-01   14   14    4   2     1     11  0.00000E+00
  1    2    6    1  7.21011E+02  5.90044E+03  3.02594E+02  1.00000E+00  3.28915E+04  4.01857E+03  4.05000E+03  3.57143E-01   14   14    4   2     1     11  0.00000E+00
  1    3    6    1  9.78292E+02  5.71751E+03  3.02441E+02  1.00000E+00  2.56114E+04  4.01857E+03  4.05000E+03  5.00000E-01   14   14    4   2     1     11  0.00000E+00
  1    4    7    1  1.24572E+03  5.48742E+03  3.02187E+02  1.00000E+00  2.02864E+04  4.01857E+03  4.05000E+03  6.42857E-01   14   14    4   2     1     11  0.00000E+00
  1    4    8    1  1.52825E+03  5.19742E+03  3.02167E+02  1.00000E+00  1.59247E+04  4.01857E+03  4.05000E+03  7.85714E-01   14   14    4   2     1     11  0.00000E+00
  1    5    9    1  1.84605E+03  4.74291E+03  3.01835E+02  1.00000E+00  1.22245E+04  4.01857E+03  4.05000E+03  9.28571E-01   14   14    4   2     1     11  0.00000E+00
  1    1    4    1  1.97527E+02  6.46941E+03  3.02704E+02  1.00000E+00  6.73376E+04  4.02429E+03  4.05000E+03  7.14286E-02   14   14    4   2     1     11  0.00000E+00
  1    2    5    1  5.22170E+02  6.30213E+03  3.02612E+02  1.00000E+00  4.44349E+04  4.02429E+03  4.05000E+03  2.14286E-01   14   14    4   2     1     11  0.00000E+00
  1    3    5    1  8.22618E+02  6.16272E+03  3.02461E+02  1.00000E+00  3.31544E+04  4.02429E+03  4.05000E+03  3.57143E-01   14   14    4   2     1     11  0.00000E+00
  1    3    6    1  1.10069E+03  5.96760E+03  3.02441E+02  1.00000E+00  2.58626E+04  4.02429E+03  4.05000E+03  5.00000E-01   14   14    4   2     1     11  0.00000E+00
  1    4    6    1  1.35535E+03  5.70849E+03  3.02211E+02  1.00000E+00  2.04918E+04  4.02429E+03  4.05000E+03  6.42857E-01   14   14    4   2     1     11  0.00000E+00
  1    5    7    1  1.61765E+03  5.37487E+03  3.01876E+02  1.00000E+00  1.62226E+04  4.02429E+03  4.05000E+03  7.85714E-01   14   14    4   2     1     11  0.00000E+00
  1    5    9    1  1.92665E+03  4.84544E+03  3.01835E+02  1.00000E+00  1.21801E+04  4.02429E+03  4.05000E+03  9.28571E-01   14   14    4   2     1     11  0.00000E+00
  1    1    4    1  2.34640E+02  6.68343E+03  3.02704E+02  1.00000E+00  6.80113E+04  4.03000E+03  4.05000E+03  7.14286E-02   14   14    4   2     1     11  0.00000E+00
  1    2    4    1  6.11402E+02  6.53452E+03  3.02630E+02  1.00000E+00  4.46918E+04  4.03000E+03  4.05000E+03  2.14286E-01   14   14    4   2     1     11  0.00000E+00
  1    3    5    1  9.51087E+02  6.38758E+03  3.02461E+02  1.00000E+00  3.33839E+04  4.03000E+03  4.05000E+03  3.57143E-01   14   14    4   2     1     11  0.00000E+00
  1    4    5    1  1.24166E+03  6.17083E+03  3.02234E+02  1.00000E+00  2.60932E+04  4.03000E+03  4.05000E+03  5.00000E-01   14   14    4   2     1     11  0.00000E+00
  1    4    6    1  1.50478E+03  5.88206E+03  3.02211E+02  1.00000E+00  2.06415E+04  4.03000E+03  4.05000E+03  6.42857E-01   14   14    4   2     1     11  0.00000E+00
  1    5    7    1  1.74284E+03  5.50311E+03  3.01876E+02  1.00000E+00  1.62886E+04  4.03000E+03  4.05000E+03  7.85714E-01   14   14    4   2     1     11  0.00000E+00
  1    6    8    1  2.01013E+03  4.92138E+03  3.01456E+02  1.00000E+00  1.21425E+04  4.03000E+03  4.05000E+03  9.28571E-01   14   14    4   2     1     11  0.00000E+00
  1    1    3    1  2.53504E+02  6.87497E+03  3.02718E+02  1.00000E+00  7.05109E+04  4.03571E+03  4.05000E+03  7.14286E-02   14   14    4   2     1     11  0.00000E+00
  1    2    4    1  6.83154E+02  6.73752E+03  3.02630E+02  1.00000E+00  4.64057E+04  4.03571E+03  4.05000E+03  2.14286E-01   14   14    4   2     1     11  0.00000E+00