@ [ MODPATH 5.0 (TREF=   0.000000E+00 ) ]
  1    1   21    1  1.12142E+02  2.59182E+03  3.02657E+02  1.00000E+00  6.55531E+04  4.01000E+03  4.01286E+03  7.14286E-02   14   14    4   2     1     11  0.00000E+00
  1    1   21    1  3.29643E+02  2.68021E+03  3.02657E+02  1.00000E+00  4.36541E+04  4.01000E+03  4.01286E+03  2.14286E-01   14   14    4   2     1     11  0.00000E+00
  1    2   21    1  5.55987E+02  2.78704E+03  3.02579E+02  1.00000E+00  3.25262E+04  4.01000E+03  4.01286E+03  3.57143E-01   14   14    4   2     1     11  0.00000E+00
  1    2   20    1  7.99007E+02  2.91660E+03  3.02564E+02  1.00000E+00  2.54350E+04  4.01000E+03  4.01286E+03  5.00000E-01   14   14    4   2     1     11  0.00000E+00
  1    3   20    1  1.04921E+03  3.07893E+03  3.02406E+02  1.00000E+00  2.02862E+04  4.01000E+03  4.01286E+03  6.42857E-01   14   14    4   2     1     11  0.00000E+00
  1    4   19    1  1.34030E+03  3.28369E+03  3.02156E+02  1.00000E+00  1.60299E+04  4.01000E+03  4.01286E+03  7.85714E-01   14   14    4   2     1     11  0.00000E+00
  1    5   18    1  1.72371E+03  3.57564E+03  3.01830E+02  1.00000E+00  1.23322E+04  4.01000E+03  4.01286E+03  9.28571E-01   14   14    4   2     1     11  0.00000E+00
  1    1   20    1  9.74049E+01  3.02186E+03  3.02642E+02  1.00000E+00  6.48130E+04  4.01000E+03  4.01857E+03  7.14286E-02   14   14    4   2     1     11  0.00000E+00
  1    1   20    1  2.96442E+02  3.09775E+03  3.02642E+02  1.00000E+00  4.29621E+04  4.01000E+03  4.01857E+03  2.14286E-01   14   14    4   2     1     11  0.00000E+00
  1    2   20    1  5.02539E+02  3.16244E+03  3.02564E+02  1.00000E+00  3.23209E+04  4.01000E+03  4.01857E+03  3.57143E-01   14   14    4   2     1     11  0.00000E+00
  1    2   19    1  7.30101E+02  3.25635E+03  3.02553E+02  1.00000E+00  2.53699E+04  4.01000E+03  4.01857E+03  5.00000E-01   14   14    4   2     1     11  0.00000E+00
  1    3   19    1  9.84036E+02  3.35885E+03  3.02395E+02  1.00000E+00  2.02925E+04  4.01000E+03  4.01857E+03  6.42857E-01   14   14    4   2     1     11  0.00000E+00
  1    4   18    1  1.27408E+03  3.51211E+03  3.02150E+02  1.00000E+00  1.60824E+04  4.01000E+03  4.01857E+03  7.85714E-01   14   14    4   2     1     11  0.00000E+00
  1    5   17    1  1.67298E+03  3.71985E+03  3.01827E+02  1.00000E+00  1.23715E+04  4.01000E+03  4.01857E+03  9.28571E-01   14   14    4   2     1     11  0.00000E+00
  1    1   18    1  9.17900E+01  3.54031E+03  3.02628E+02  1.00000E+00  6.32159E+04  4.01000E+03  4.02429E+03  7.14286E-02   14   14    4   2     1     11  0.00000E+00
  1    1   18    1  2.75314E+02  3.54861E+03  3.02628E+02  1.00000E+00  4.23832E+04  4.01000E+03  4.02429E+03  2.14286E-01   14   14    4   2     1     11  0.00000E+00
  1    2   18    1  4.69566E+02  3.57809E+03  3.02548E+02  1.00000E+00  3.21565E+04  4.01000E+03  4.02429E+03  3.57143E-01   14   14    4   2     1     11  0.00000E+00
  1    2   18    1  6.83978E+02  3.62678E+03  3.02548E+02  1.00000E+00  2.54274E+04  4.01000E+03  4.02429E+03  5.00000E-01   14   14    4   2     1     11  0.00000E+00
  1    3   18    1  9.25915E+02  3.68380E+03  3.02389E+02  1.00000E+00  2.04130E+04  4.01000E+03  4.02429E+03  6.42857E-01   14   14    4   2     1     11  0.00000E+00
  1    4   17    1  1.21538E+03  3.76175E+03  3.02147E+02  1.00000E+00  1.63426E+04  4.01000E+03  4.02429E+03  7.85714E-01   14   14    4   2     1     11  0.00000E+00
  1    5   16    1  1.61728E+03  3.87933E+03  3.01825E+02  1.00000E+00  1.25762E+04  4.01000E+03  4.02429E+03  9.28571E-01   14   14    4   2     1     11  0.00000E+00
  1    1   14    1  9.17900E+01  4.03013E+03  3.02625E+02  1.00000E+00  6.24213E+04  4.01000E+03  4.03000E+03  7.14286E-02   14   14    4   2     1     11  0.00000E+00
  1    1   14    1  2.72554E+02  4.03007E+03  3.02625E+02  1.00000E+00  4.18710E+04  4.01000E+03  4.03000E+03  2.14286E-01   14   14    4   2     1     11  0.00000E+00
  1    2   14    1  4.58267E+02  4.03004E+03  3.02545E+02  1.00000E+00  3.20235E+04  4.01000E+03  4.03000E+03  3.57143E-01   14   14    4   2     1     11  0.00000E+00
  1    2   14    1  6.64812E+02  4.03003E+03  3.02545E+02  1.00000E+00  2.54895E+04  4.01000E+03  4.03000E+03  5.00000E-01   14   14    4   2     1     11  0.00000E+00
  1    3   14    1  9.00058E+02  4.03003E+03  3.02386E+02  1.00000E+00  2.05878E+04  4.01000E+03  4.03000E+03  6.42857E-01   14   14    4   2     1     11  0.00000E+00
  1    3   14    1  1.18457E+03  4.03003E+03  3.02386E+02  1.00000E+00  1.65393E+04  4.01000E+03  4.03000E+03  7.85714E-01   14   14    4   2     1     11  0.00000E+00
  1    4   14    1  1.59967E+03  4.03002E+03  3.02146E+02  1.00000E+00  1.26417E+04  4.01000E+03  4.03000E+03  9.28571E-01   14   14    4   2     1     11  0.00000E+00
  1    1   10    1  9.17799E+01  4.51985E+03  3.02628E+02  1.00000E+00  6.32154E+04  4.01000E+03  4.03571E+03  7.14286E-02   14   14    4   2     1     11  0.00000E+00
  1    1   10    1  2.75288E+02  4.51147E+03  3.02628E+02  1.00000E+00  4.23829E+04  4.01000E+03  4.03571E+03  2.14286E-01   14   14    4   2     1     11  0.00000E+00
  1    2   10    1  4.69563E+02  4.48196E+03  3.02549E+02  1.00000E+00  3.21562E+04  4.01000E+03  4.03571E+03  3.57143E-01   14   14    4   2     1     11  0.00000E+00
  1    2   10    1  6.83991E+02  4.43328E+03  3.02549E+02  1.00000E+00  2.54271E+04  4.01000E+03  4.03571E+03  5.00000E-01   14   14    4   2     1     11  0.00000E+00
  1    3   10    1  9.25925E+02  4.37627E+03  3.02389E+02  1.00000E+00  2.04129E+04  4.01000E+03  4.03571E+03  6.42857E-01   14   14    4   2     1     11  0.00000E+00
  1    4   11    1  1.21539E+03  4.29833E+03  3.02147E+02  1.00000E+00  1.63426E+04  4.01000E+03  4.03571E+03  7.85714E-01   14   14    4   2     1     11  0.00000E+00
  1    5   12    1  1.61728E+03  4.18074E+03  3.01825E+02  1.00000E+00  1.25762E+04  4.01000E+03  4.03571E+03  9.28571E-01   14   14    4   2     1     11  0.00000E+00
  1    1    8    1  9.73850E+01  5.03803E+03  3.02642E+02  1.00000E+00  6.48125E+04  4.01000E+03  4.04143E+03  7.14286E-02   14   14    4   2     1     11  0.00000E+00
  1    1    8    1  2.96397E+02  4.96216E+03  3.02642E+02  1.00000E+00  4.29619E+04  4.01000E+03  4.04143E+03  2.14286E-01   14   14    4   2     1     11  0.00000E+00
  1    2    8    1  5.02524E+02  4.89747E+03  3.02564E+02  1.00000E+00  3.23206E+04  4.01000E+03  4.04143E+03  3.57143E-01   14   14    4   2     1     11  0.00000E+00
  1    2    9    1  7.30114E+02  4.80359E+03  3.02553E+02  1.00000E+00  2.53696E+04  4.01000E+03  4.04143E+03  5.00000E-01   14   14    4   2     1     11  0.00000E+00
  1    3    9    1  9.84047E+02  4.70111E+03  3.02395E+02  1.00000E+00  2.02923E+04  4.01000E+03  4.04143E+03  6.42857E-01   14   14    4   2     1     11  0.00000E+00
  1    4   10    1  1.27409E+03  4.54789E+03  3.02150E+02  1.00000E+00  1.60824E+04  4.01000E+03  4.04143E+03  7.85714E-01   14   14    4   2     1     11  0.00000E+00
  1    5   11    1  1.67298E+03  4.34020E+03  3.01827E+02  1.00000E+00  1.23715E+04  4.01000E+03  4.04143E+03  9.28571E-01   14   14    4   2     1     11  0.00000E+00
  1    1    7    1  1.12123E+02  5.46802E+03  3.02657E+02  1.00000E+00  6.55522E+04  4.01000E+03  4.04714E+03  7.14286E-02   14   14    4   2     1     11  0.00000E+00
  1    1    7    1  3.29602E+02  5.37969E+03  3.02657E+02  1.00000E+00  4.36539E+04  4.01000E+03  4.04714E+03  2.14286E-01   14   14    4   2     1     11  0.00000E+00
  1    2    7    1  5.55973E+02  5.27288E+03  3.02579E+02  1.00000E+00  3.25260E+04  4.01000E+03  4.04714E+03  3.57143E-01   14   14    4   2     1     11  0.00000E+00
  1    2    8    1  7.99014E+02  5.14332E+03  3.02564E+02  1.00000E+00  2.54348E+04  4.01000E+03  4.04714E+03  5.00000E-01   14   14    4   2     1     11  0.00000E+00
  1    3    8    1  1.04922E+03  4.98100E+03  3.02406E+02  1.00000E+00  2.02861E+04  4.01000E+03  4.04714E+03  6.42857E-01   14   14    4   2     1     11  0.00000E+00
  1    4    9    1  1.34030E+03  4.77626E+03  3.02156E+02  1.00000E+00  1.60299E+04  4.01000E+03  4.04714E+03  7.85714E-01   14   14    4   2     1     11  0.00000E+00
  1    5   10    1  1.72371E+03  4.48438E+03  3.01830E+02  1.00000E+00  1.23322E+04  4.01000E+03  4.04714E+03  9.28571E-01   14   14    4   2     1     11  0.00000E+00
  1    1   26    1  3.63284E+02  7.11985E+02  3.02731E+02  1.00000E+00  8.01550E+04  4.05000E+03  4.01286E+03  7.14286E-02   14   14    4   2     1     11  0.00000E+00
  1    3   25    1  1.04344E+03  9.53010E+02  3.02499E+02  1.00000E+00  5.15238E+04  4.05000E+03  4.01286E+03  2.14286E-01   14   14    4   2     1     11  0.00000E+00
  1    5   24    1  1.69824E+03  1.30291E+03  3.01959E+02  1.00000E+00  3.60781E+04  4.05000E+03  4.01286E+03  3.57143E-01   14   14    4   2     1     11  0.00000E+00
  1    6   23    1  2.10992E+03  1.77079E+03  3.01554E+02  1.00000E+00  2.67013E+04  4.05000E+03  4.01286E+03  5.00000E-01   14   14    4   2     1     11  0.00000E+00
  1    6   22    1  2.36394E+03  2.29611E+03  3.01521E+02  1.00000E+00  1.95095E+04  4.05000E+03  4.01286E+03  6.42857E-01   14   14    4   2     1     11  0.00000E+00
  1    7   20    1  2.48760E+03  2.85381E+03  3.00984E+02  1.00000E+00  1.46998E+04  4.05000E+03  4.01286E+03  7.85714E-01   14   14    4   2     1     11  0.00000E+00
  1    7   19    1  2.44276E+03  3.41709E+03  3.00959E+02  1.00000E+00  1.12481E+04  4.05000E+03  4.01286E+03  9.28571E-01   14   14    4   2     1     11  0.00000E+00
  1    2   26    1  4.70546E+02  6.33639E+02  3.02658E+02  1.00000E+00  8.17802E+04  4.05000E+03  4.01857E+03  7.14286E-02   14   14    4   2     1     11  0.00000E+00
  1    4   25    1  1.28872E+03  9.35303E+02  3.02276E+02  1.00000E+00  5.35653E+04  4.05000E+03  4.01857E+03  2.14286E-01   14   14    4   2     1     11  0.00000E+00
  1    5   24    1  1.99554E+03  1.40679E+03  3.01959E+02  1.00000E+00  3.81928E+04  4.05000E+03  4.01857E+03  3.57143E-01   14   14    4   2     1     11  0.00000E+00
  1    7   22    1  2.40765E+03  2.00917E+03  3.01059E+02  1.00000E+00  2.76643E+04  4.05000E+03  4.01857E+03  5.00000E-01   14   14    4   2     1     11  0.00000E+00
  1    7   21    1  2.58810E+03  2.59503E+03  3.01020E+02  1.00000E+00  1.97518E+04  4.05000E+03  4.01857E+03  6.42857E-01   14   14    4   2     1     11  0.00000E+00
  1    7   20    1  2.67670E+03  3.13218E+03  3.00984E+02  1.00000E+00  1.48039E+04  4.05000E+03  4.01857E+03  7.85714E-01   14   14    4   2     1     11  0.00000E+00
  1    7   18    1  2.56525E+03  3.58376E+03  3.00947E+02  1.00000E+00  1.08075E+04  4.05000E+03  4.01857E+03  9.28571E-01   14   14    4   2     1     11  0.00000E+00
  1    2   26    1  6.60098E+02  6.00020E+02  3.02658E+02  1.00000E+00  8.81781E+04  4.05000E+03  4.02429E+03  7.14286E-02   14   14    4   2     1     11  0.00000E+00
  1    5   25    1  1.64851E+03  1.01327E+03  3.01979E+02  1.00000E+00  5.87374E+04  4.05000E+03  4.02429E+03  2.14286E-01   14   14    4   2     1     11  0.00000E+00
  1    6   23    1  2.38907E+03  1.75454E+03  3.01554E+02  1.00000E+00  4.11062E+04  4.05000E+03  4.02429E+03  3.57143E-01   14   14    4   2     1     11  0.00000E+00
  1    7   21    1  2.72395E+03  2.54266E+03  3.01020E+02  1.00000E+00  2.79034E+04  4.05000E+03  4.02429E+03  5.00000E-01   14   14    4   2     1     11  0.00000E+00
  1    8   20    1  2.85854E+03  3.12199E+03  3.00430E+02  1.00000E+00  2.06264E+04  4.05000E+03  4.02429E+03  6.42857E-01   14   14    4   2     1     11  0.00000E+00
  1    8   19    1  2.84083E+03  3.49345E+03  3.00399E+02  1.00000E+00  1.42382E+04  4.05000E+03  4.02429E+03  7.85714E-01   14   14    4   2     1     11  0.00000E+00
  1    7   17    1  2.65511E+03  3.80863E+03  3.00941E+02  1.00000E+00  1.08329E+04  4.05000E+03  4.02429E+03  9.28571E-01   14   14    4   2     1     11  0.00000E+00
  1    8   12    1  3.14129E+03  4.12168E+03  3.00374E+02  1.00000E+00  1.49164E+05  4.05000E+03  4.03000E+03  7.14286E-02   14   14    4   2     1     11  0.00000E+00
  1    8   14    1  3.14356E+03  4.03154E+03  3.00373E+02  1.00000E+00  8.33084E+04  4.05000E+03  4.03000E+03  2.14286E-01   14   14    4   2     1     11  0.00000E+00
  1    8   14    1  3.13530E+03  4.03008E+03  3.00373E+02  1.00000E+00  4.08089E+04  4.05000E+03  4.03000E+03  3.57143E-01   14   14    4   2     1     11  0.00000E+00
  1    8   14    1  3.10602E+03  4.03002E+03  3.00373E+02  1.00000E+00  3.01950E+04  4.05000E+03  4.03000E+03  5.00000E-01   14   14    4   2     1     11  0.00000E+00
  1    8   14    1  3.04305E+03  4.03002E+03  3.00373E+02  1.00000E+00  1.94389E+04  4.05000E+03  4.03000E+03  6.42857E-01   14   14    4   2     1     11  0.00000E+00
  1    8   14    1  2.92658E+03  4.03002E+03  3.00373E+02  1.00000E+00  1.48920E+04  4.05000E+03  4.03000E+03  7.85714E-01   14   14    4   2     1     11  0.00000E+00
  1    7   14    1  2.69253E+03  4.03002E+03  3.00939E+02  1.00000E+00  1.08031E+04  4.05000E+03  4.03000E+03  9.28571E-01   14   14    4   2     1     11  0.00000E+00
  1    2    2    1  6.60061E+02  7.45991E+03  3.02657E+02  1.00000E+00  8.81763E+04  4.05000E+03  4.03571E+03  7.14286E-02   14   14    4   2     1     11  0.00000E+00
  1    5    3    1  1.64848E+03  7.04669E+03  3.01979E+02  1.00000E+00  5.87380E+04  4.05000E+03  4.03571E+03  2.14286E-01   14   14    4   2     1     11  0.00000E+00
  1    6    5    1  2.38905E+03  6.30545E+03  3.01553E+02  1.00000E+00  4.11067E+04  4.05000E+03  4.03571E+03  3.57143E-01   14   14    4   2     1     11  0.00000E+00
  1    7    7    1  2.72395E+03  5.51731E+03  3.01020E+02  1.00000E+00  2.79036E+04  4.05000E+03  4.03571E+03  5.00000E-01   14   14    4   2     1     11  0.00000E+00
  1    8    8    1  2.85852E+03  4.93799E+03  3.00430E+02  1.00000E+00  2.06265E+04  4.05000E+03  4.03571E+03  6.42857E-01   14   14    4   2     1     11  0.00000E+00
  1    8    9    1  2.84083E+03  4.56656E+03  3.00399E+02  1.00000E+00  1.42382E+04  4.05000E+03  4.03571E+03  7.85714E-01   14   14    4   2     1     11  0.00000E+00
  1    7   11    1  2.65510E+03  4.25141E+03  3.00941E+02  1.00000E+00  1.08329E+04  4.05000E+03  4.03571E+03  9.28571E-01   14   14    4   2     1     11  0.00000E+00
  1    2    2    1  4.70545E+02  7.42628E+03  3.02657E+02  1.00000E+00  8.17780E+04  4.05000E+03  4.04143E+03  7.14286E-02   14   14    4   2     1     11  0.00000E+00
  1    4    3    1  1.28872E+03  7.12462E+03  3.02276E+02  1.00000E+00  5.35653E+04  4.05000E+03  4.04143E+03  2.14286E-01   14   14    4   2     1     11  0.00000E+00
  1    5    4    1  1.99554E+03  6.65316E+03  3.01958E+02  1.00000E+00  3.81929E+04  4.05000E+03  4.04143E+03  3.57143E-01   14   14    4   2     1     11  0.00000E+00
  1    7    6    1  2.40765E+03  6.05080E+03  3.01059E+02  1.00000E+00  2.76643E+04  4.05000E+03  4.04143E+03  5.00000E-01   14   14    4   2     1     11  0.00000E+00
  1    7    7    1  2.58809E+03  5.46491E+03  3.01020E+02  1.00000E+00  1.97518E+04  4.05000E+03  4.04143E+03  6.42857E-01   14   14    4   2     1     11  0.00000E+00
  1    7    8    1  2.67669E+03  4.92779E+03  3.00984E+02  1.00000E+00  1.48038E+04  4.05000E+03  4.04143E+03  7.85714E-01   14   14    4   2     1     11  0.00000E+00
  1    7   10    1  2.56524E+03  4.47625E+03  3.00947E+02  1.00000E+00  1.08075E+04  4.05000E+03  4.04143E+03  9.28571E-01   14   14    4   2     1     11  0.00000E+00
  1    1    2    1  3.63278E+02  7.34792E+03  3.02731E+02  1.00000E+00  8.01529E+04  4.05000E+03  4.04714E+03  7.14286E-02   14   14    4   2     1     11  0.00000E+00
  1    3    3    1  1.04342E+03  7.10691E+03  3.02499E+02  1.00000E+00  5.15237E+04  4.05000E+03  4.04714E+03  2.14286E-01   14   14    4   2     1     11  0.00000E+00
  1    5    4    1  1.69826E+03  6.75702E+03  3.01958E+02  1.00000E+00  3.60778E+04  4.05000E+03  4.04714E+03  3.57143E-01   14   14    4   2     1     11  0.00000E+00
  1    6    5    1  2.10992E+03  6.28915E+03  3.01553E+02  1.00000E+00  2.67012E+04  4.05000E+03  4.04714E+03  5.00000E-01   14   14    4   2     1     11  0.00000E+00
  1    6    6    1  2.36394E+03  5.76383E+03  3.01521E+02  1.00000E+00  1.95094E+04  4.05000E+03  4.04714E+03  6.42857E-01   14   14    4   2     1     11  0.00000E+00
  1    7    8    1  2.48759E+03  5.20614E+03  3.00984E+02  1.00000E+00  1.46997E+04  4.05000E+03  4.04714E+03  7.85714E-01   14   14    4   2     1     11  0.00000E+00
  1    7    9    1  2.44274E+03  4.64291E+03  3.00959E+02  1.00000E+00  1.12481E+04  4.05000E+03  4.04714E+03  9.28571E-01   14   14    4   2     1     11  0.00000E+00
  1    1   22    1  1.33658E+02  2.17623E+03  3.02674E+02  1.00000E+00  6.67323E+04  4.01286E+03  4.01000E+03  7.14286E-02   14   14    4   2     1     11  0.00000E+00
  1    1   22    1  3.71606E+02  2.33797E+03  3.02674E+02  1.00000E+00  4.42058E+04  4.01286E+03  4.01000E+03  2.14286E-01   14   14    4   2     1     11  0.00000E+00
  1    2   21    1  6.27114E+02  2.45591E+03  3.02579E+02  1.00000E+00  3.27697E+04  4.01286E+03  4.01000E+03  3.57143E-01   14   14    4   2     1     11  0.00000E+00
  1    3   21    1  8.82730E+02  2.61126E+03  3.02424E+02  1.00000E+00  2.55292E+04  4.01286E+03  4.01000E+03  5.00000E-01   14   14    4   2     1     11  0.00000E+00
  1    3   20    1  1.14173E+03  2.80938E+03  3.02406E+02  1.00000E+00  2.00879E+04  4.01286E+03  4.01000E+03  6.42857E-01   14   14    4   2     1     11  0.00000E+00
  1    4   20    1  1.43155E+03  3.05832E+03  3.02170E+02  1.00000E+00  1.59678E+04  4.01286E+03  4.01000E+03  7.85714E-01   14   14    4   2     1     11  0.00000E+00
  1    5   19    1  1.78548E+03  3.45780E+03  3.01838E+02  1.00000E+00  1.21938E+04  4.01286E+03  4.01000E+03  9.28571E-01   14   14    4   2     1     11  0.00000E+00
  1    1   23    1  1.65423E+02  1.86759E+03  3.02691E+02  1.00000E+00  6.66432E+04  4.01857E+03  4.01000E+03  7.14286E-02   14   14    4   2     1     11  0.00000E+00
  1    2   22    1  4.43964E+02  2.03314E+03  3.02597E+02  1.00000E+00  4.40081E+04  4.01857E+03  4.01000E+03  2.14286E-01   14   14    4   2     1     11  0.00000E+00
  1    2   22    1  7.20710E+02  2.15963E+03  3.02597E+02  1.00000E+00  3.28974E+04  4.01857E+03  4.01000E+03  3.57143E-01   14   14    4   2     1     11  0.00000E+00
  1    3   22    1  9.77973E+02  2.34255E+03  3.02444E+02  1.00000E+00  2.56156E+04  4.01857E+03  4.01000E+03  5.00000E-01   14   14    4   2     1     11  0.00000E+00
  1    4   21    1  1.24541E+03  2.57264E+03  3.02190E+02  1.00000E+00  2.02893E+04  4.01857E+03  4.01000E+03  6.42857E-01   14   14    4   2     1     11  0.00000E+00
  1    4   20    1  1.52795E+03  2.86267E+03  3.02170E+02  1.00000E+00  1.59268E+04  4.01857E+03  4.01000E+03  7.85714E-01   14   14    4   2     1     11  0.00000E+00
  1    5   19    1  1.84578E+03  3.31726E+03  3.01838E+02  1.00000E+00  1.22258E+04  4.01857E+03  4.01000E+03  9.28571E-01   14   14    4   2     1     11  0.00000E+00
  1    1   24    1  1.97355E+02  1.59073E+03  3.02708E+02  1.00000E+00  6.73504E+04  4.02429E+03  4.01000E+03  7.14286E-02   14   14    4   2     1     11  0.00000E+00
  1    2   23    1  5.21892E+02  1.75793E+03  3.02616E+02  1.00000E+00  4.44434E+04  4.02429E+03  4.01000E+03  2.14286E-01   14   14    4   2     1     11  0.00000E+00
  1    3   23    1  8.22289E+02  1.89731E+03  3.02464E+02  1.00000E+00  3.31605E+04  4.02429E+03  4.01000E+03  3.57143E-01   14   14    4   2     1     11  0.00000E+00
  1    3   22    1  1.10034E+03  2.09244E+03  3.02444E+02  1.00000E+00  2.58670E+04  4.02429E+03  4.01000E+03  5.00000E-01   14   14    4   2     1     11  0.00000E+00
  1    4   22    1  1.35501E+03  2.35155E+03  3.02214E+02  1.00000E+00  2.04948E+04  4.02429E+03  4.01000E+03  6.42857E-01   14   14    4   2     1     11  0.00000E+00
  1    5   21    1  1.61734E+03  2.68517E+03  3.01879E+02  1.00000E+00  1.62247E+04  4.02429E+03  4.01000E+03  7.85714E-01   14   14    4   2     1     11  0.00000E+00
  1    5   19    1  1.92638E+03  3.21469E+03  3.01838E+02  1.00000E+00  1.21815E+04  4.02429E+03  4.01000E+03  9.28571E-01   14   14    4   2     1     11  0.00000E+00
  1    1   24    1  2.34445E+02  1.37663E+03  3.02708E+02  1.00000E+00  6.80246E+04  4.03000E+03  4.01000E+03  7.14286E-02   14   14    4   2     1     11  0.00000E+00
  1    2   24    1  6.11089E+02  1.52549E+03  3.02633E+02  1.00000E+00  4.47006E+04  4.03000E+03  4.01000E+03  2.14286E-01   14   14    4   2     1     11  0.00000E+00
  1    3   23    1  9.50717E+02  1.67238E+03  3.02464E+02  1.00000E+00  3.33902E+04  4.03000E+03  4.01000E+03  3.57143E-01   14   14    4   2     1     11  0.00000E+00
  1    4   23    1  1.24129E+03  1.88912E+03  3.02237E+02  1.00000E+00  2.60977E+04  4.03000E+03  4.01000E+03  5.00000E-01   14   14    4   2     1     11  0.00000E+00
  1    4   22    1  1.50443E+03  2.17793E+03  3.02214E+02  1.00000E+00  2.06446E+04  4.03000E+03  4.01000E+03  6.42857E-01   14   14    4   2     1     11  0.00000E+00
  1    5   21    1  1.74251E+03  2.55691E+03  3.01879E+02  1.00000E+00  1.62907E+04  4.03000E+03  4.01000E+03  7.85714E-01   14   14    4   2     1     11  0.00000E+00
  1    6   20    1  2.00986E+03  3.13874E+03  3.01459E+02  1.00000E+00  1.21437E+04  4.03000E+03  4.01000E+03  9.28571E-01   14   14    4   2     1     11  0.00000E+00
  1    1   25    1  2.53294E+02  1.18505E+03  3.02721E+02  1.00000E+00  7.05249E+04  4.03571E+03  4.01000E+03  7.14286E-02   14   14    4   2     1     11  0.00000E+00
  1    2   24    1  6.82800E+02  1.32244E+03  3.02633E+02  1.00000E+00  4.64150E+04  4.03571E+03  4.01000E+03  2.14286E-01   14   14    4   2     1     11  0.00000E+00
  1    3   24    1  1.08873E+03  1.48628E+03  3.02483E+02  1.00000E+00  3.39937E+04  4.03571E+03  4.01000E+03  3.57143E-01   14   14    4   2     1     11  0.00000E+00
  1    4   23    1  1.42097E+03  1.74356E+03  3.02237E+02  1.00000E+00  2.61239E+04  4.03571E+03  4.01000E+03  5.00000E-01   14   14    4   2     1     11  0.00000E+00
  1    5   22    1  1.69128E+03  2.08273E+03  3.01906E+02  1.00000E+00  2.03588E+04  4.03571E+03  4.01000E+03  6.42857E-01   14   14    4   2     1     11  0.00000E+00
  1    5   21    1  1.91937E+03  2.52093E+03  3.01879E+02  1.00000E+00  1.58218E+04  4.03571E+03  4.01000E+03  7.85714E-01   14   14    4   2     1     11  0.00000E+00
  1    6   20    1  2.11097E+03  3.13655E+03  3.01459E+02  1.00000E+00  1.19142E+04  4.03571E+03  4.01000E+03  9.28571E-01   14   14    4   2     1     11  0.00000E+00
  1    1   25    1  2.72402E+02  9.89938E+02  3.02721E+02  1.00000E+00  7.45471E+04  4.04143E+03  4.01000E+03  7.14286E-02   14   14    4   2     1     11  0.00000E+00
  1    2   25    1  7.57303E+02  1.15552E+03  3.02647E+02  1.00000E+00  4.83890E+04  4.04143E+03  4.01000E+03  2.14286E-01   14   14    4   2     1     11  0.00000E+00
  1    4   24    1  1.26335E+03  1.36583E+03  3.02259E+02  1.00000E+00  3.44139E+04  4.04143E+03  4.01000E+03  3.57143E-01   14   14    4   2     1     11  0.00000E+00
  1    5   23    1  1.63226E+03  1.67921E+03  3.01934E+02  1.00000E+00  2.59625E+04  4.04143E+03  4.01000E+03  5.00000E-01   14   14    4   2     1     11  0.00000E+00
  1    5   22    1  1.90199E+03  2.06896E+03  3.01906E+02  1.00000E+00  2.00385E+04  4.04143E+03  4.01000E+03  6.42857E-01   14   14    4   2     1     11  0.00000E+00
  1    6   21    1  2.10358E+03  2.56387E+03  3.01489E+02  1.00000E+00  1.53452E+04  4.04143E+03  4.01000E+03  7.85714E-01   14   14    4   2     1     11  0.00000E+00
  1    6   19    1  2.24280E+03  3.20225E+03  3.01439E+02  1.00000E+00  1.14927E+04  4.04143E+03  4.01000E+03  9.28571E-01   14   14    4   2     1     11  0.00000E+00
  1    1   25    1  3.06551E+02  8.42219E+02  3.02721E+02  1.00000E+00  7.72619E+04  4.04714E+03  4.01000E+03  7.14286E-02   14   14    4   2     1     11  0.00000E+00
  1    3   25    1  8.81297E+02  1.03334E+03  3.02499E+02  1.00000E+00  4.97663E+04  4.04714E+03  4.01000E+03  2.14286E-01   14   14    4   2     1     11  0.00000E+00
  1    4   24    1  1.45868E+03  1.29777E+03  3.02259E+02  1.00000E+00  3.50797E+04  4.04714E+03  4.01000E+03  3.57143E-01   14   14    4   2     1     11  0.00000E+00
  1    5   23    1  1.85999E+03  1.67845E+03  3.01934E+02  1.00000E+00  2.61102E+04  4.04714E+03  4.01000E+03  5.00000E-01   14   14    4   2     1     11  0.00000E+00
  1    6   22    1  2.12956E+03  2.14180E+03  3.01521E+02  1.00000E+00  1.97640E+04  4.04714E+03  4.01000E+03  6.42857E-01   14   14    4   2     1     11  0.00000E+00
  1    6   21    1  2.27404E+03  2.65683E+03  3.01489E+02  1.00000E+00  1.51905E+04  4.04714E+03  4.01000E+03  7.85714E-01   14   14    4   2     1     11  0.00000E+00
  1    6   19    1  2.35350E+03  3.30691E+03  3.01439E+02  1.00000E+00  1.12638E+04  4.04714E+03  4.01000E+03  9.28571E-01   14   14    4   2     1     11  0.00000E+00
  1    1    6    1  1.33642E+02  5.88361E+03  3.02674E+02  1.00000E+00  6.67311E+04  4.01286E+03  4.05000E+03  7.14286E-02   14   14    4   2     1     11  0.00000E+00
  1    1    6    1  3.71572E+02  5.72195E+03  3.02674E+02  1.00000E+00  4.42056E+04  4.01286E+03  4.05000E+03  2.14286E-01   14   14    4   2     1     11  0.00000E+00
  1    2    7    1  6.27103E+02  5.60402E+03  3.02579E+02  1.00000E+00  3.27697E+04  4.01286E+03  4.05000E+03  3.57143E-01   14   14    4   2     1     11  0.00000E+00
  1    3    7    1  8.82730E+02  5.44866E+03  3.02424E+02  1.00000E+00  2.55291E+04  4.01286E+03  4.05000E+03  5.00000E-01   14   14    4   2     1     11  0.00000E+00
  1    3    8    1  1.14174E+03  5.25055E+03  3.02406E+02  1.00000E+00  2.00879E+04  4.01286E+03  4.05000E+03  6.42857E-01   14   14    4   2     1     11  0.00000E+00
  1    4    8    1  1.43155E+03  5.00162E+03  3.02170E+02  1.00000E+00  1.59678E+04  4.01286E+03  4.05000E+03  7.85714E-01   14   14    4   2     1     11  0.00000E+00
  1    5    9    1  1.78548E+03  4.60218E+03  3.01838E+02  1.00000E+00  1.21938E+04  4.01286E+03  4.05000E+03  9.28571E-01   14   14    4   2     1     11  0.00000E+00
  1    1    5    1  1.65409E+02  6.19226E+03  3.02691E+02  1.00000E+00  6.66417E+04  4.01857E+03  4.05000E+03  7.14286E-02   14   14    4   2     1     11  0.00000E+00
  1    2    6    1  4.43938E+02  6.02678E+03  3.02597E+02  1.00000E+00  4.40079E+04  4.01857E+03  4.05000E+03  2.14286E-01   14   14    4   2     1     11  0.00000E+00
  1    2    6    1  7.20692E+02  5.90029E+03  3.02597E+02  1.00000E+00  3.28973E+04  4.01857E+03  4.05000E+03  3.57143E-01   14   14    4   2     1     11  0.00000E+00
  1    3    6    1  9.77966E+02  5.71743E+03  3.02444E+02  1.00000E+00  2.56156E+04  4.01857E+03  4.05000E+03  5.00000E-01   14   14    4   2     1     11  0.00000E+00
  1    4    7    1  1.24541E+03  5.48729E+03  3.02190E+02  1.00000E+00  2.02893E+04  4.01857E+03  4.05000E+03  6.42857E-01   14   14    4   2     1     11  0.00000E+00
  1    4    8    1  1.52796E+03  5.19726E+03  3.02170E+02  1.00000E+00  1.59268E+04  4.01857E+03  4.05000E+03  7.85714E-01   14   14    4   2     1     11  0.00000E+00
  1    5    9    1  1.84578E+03  4.74271E+03  3.01838E+02  1.00000E+00  1.22258E+04  4.01857E+03  4.05000E+03  9.28571E-01   14   14    4   2     1     11  0.00000E+00
  1    1    4    1  1.97342E+02  6.46913E+03  3.02708E+02  1.00000E+00  6.73487E+04  4.02429E+03  4.05000E+03  7.14286E-02   14   14    4   2     1     11  0.00000E+00
  1    2    5    1  5.21866E+02  6.30199E+03  3.02616E+02  1.00000E+00  4.44432E+04  4.02429E+03  4.05000E+03  2.14286E-01   14   14    4   2     1     11  0.00000E+00
  1    3    5    1  8.22264E+02  6.16262E+03  3.02464E+02  1.00000E+00  3.31605E+04  4.02429E+03  4.05000E+03  3.57143E-01   14   14    4   2     1     11  0.00000E+00
  1    3    6    1  1.10034E+03  5.96754E+03  3.02444E+02  1.00000E+00  2.58670E+04  4.02429E+03  4.05000E+03  5.00000E-01   14   14    4   2     1     11  0.00000E+00
  1    4    6    1  1.35501E+03  5.70837E+03  3.02214E+02  1.00000E+00  2.04948E+04  4.02429E+03  4.05000E+03  6.42857E-01   14   14    4   2     1     11  0.00000E+00
  1    5    7    1  1.61734E+03  5.37477E+03  3.01879E+02  1.00000E+00  1.62247E+04  4.02429E+03  4.05000E+03  7.85714E-01   14   14    4   2     1     11  0.00000E+00
  1    5    9    1  1.92638E+03  4.84528E+03  3.01838E+02  1.00000E+00  1.21815E+04  4.02429E+03  4.05000E+03  9.28571E-01   14   14    4   2     1     11  0.00000E+00
  1    1    4    1  2.34437E+02  6.68324E+03  3.02708E+02  1.00000E+00  6.80228E+04  4.03000E+03  4.05000E+03  7.14286E-02   14   14    4   2     1     11  0.00000E+00
  1    2    4    1  6.11055E+02  6.53442E+03  3.02633E+02  1.00000E+00  4.47003E+04  4.03000E+03  4.05000E+03  2.14286E-01   14   14    4   2     1     11  0.00000E+00
  1    3    5    1  9.50697E+02  6.38754E+03  3.02464E+02  1.00000E+00  3.33902E+04  4.03000E+03  4.05000E+03  3.57143E-01   14   14    4   2     1     11  0.00000E+00
  1    4    5    1  1.24128E+03  6.17080E+03  3.02237E+02  1.00000E+00  2.60977E+04  4.03000E+03  4.05000E+03  5.00000E-01   14   14    4   2     1     11  0.00000E+00
  1    4    6    1  1.50443E+03  5.88205E+03  3.02214E+02  1.00000E+00  2.06446E+04  4.03000E+03  4.05000E+03  6.42857E-01   14   14    4   2     1     11  0.00000E+00
  1    5    7    1  1.74251E+03  5.50303E+03  3.01879E+02  1.00000E+00  1.62907E+04  4.03000E+03  4.05000E+03  7.85714E-01   14   14    4   2     1     11  0.00000E+00
  1    6    8    1  2.00986E+03  4.92122E+03  3.01459E+02  1.00000E+00  1.21436E+04  4.03000E+03  4.05000E+03  9.28571E-01   14   14    4   2     1     11  0.00000E+00
  1    1    3    1  2.53287E+02  6.87482E+03  3.02721E+02  1.00000E+00  7.05230E+04  4.03571E+03  4.05000E+03  7.14286E-02   14   14    4   2     1     11  0.00000E+00
  1    2    4    1  6.82766E+02  6.73748E+03  3.02633E+02  1.00000E+00  4.64148E+04  4.03571E+03  4.05000E+03  2.14286E-01   14   14    4   2     1     11  0.00000E+00