@ [ MODPATH 5.0 (TREF=   0.186150E+06 ) ]
  1    1   21    1  1.04321E+02  2.43083E+03  3.02657E+02  1.00000E+00  6.84843E+04  4.01000E+03  4.01286E+03  7.14286E-02   14   14    4   2     8     11  0.00000E+00
  1    1   21    1  3.10444E+02  2.56862E+03  3.02657E+02  1.00000E+00  4.58054E+04  4.01000E+03  4.01286E+03  2.14286E-01   14   14    4   2     8     11  0.00000E+00
  1    2   21    1  5.24399E+02  2.67486E+03  3.02579E+02  1.00000E+00  3.45010E+04  4.01000E+03  4.01286E+03  3.57143E-01   14   14    4   2     8     11  0.00000E+00
  1    2   20    1  7.42929E+02  2.80113E+03  3.02564E+02  1.00000E+00  2.71417E+04  4.01000E+03  4.01286E+03  5.00000E-01   14   14    4   2     8     11  0.00000E+00
  1    3   20    1  9.87597E+02  2.95847E+03  3.02406E+02  1.00000E+00  2.18312E+04  4.01000E+03  4.01286E+03  6.42857E-01   14   14    4   2     8     11  0.00000E+00
  1    4   20    1  1.24031E+03  3.16140E+03  3.02170E+02  1.00000E+00  1.74885E+04  4.01000E+03  4.01286E+03  7.85714E-01   14   14    4   2     8     11  0.00000E+00
  1    4   19    1  1.57861E+03  3.41613E+03  3.02157E+02  1.00000E+00  1.39204E+04  4.01000E+03  4.01286E+03  9.28571E-01   14   14    4   2     8     11  0.00000E+00
  1    1   20    1  8.76219E+01  2.89537E+03  3.02642E+02  1.00000E+00  6.77086E+04  4.01000E+03  4.01857E+03  7.14286E-02   14   14    4   2     8     11  0.00000E+00
  1    1   20    1  2.74538E+02  3.00284E+03  3.02642E+02  1.00000E+00  4.50593E+04  4.01000E+03  4.01857E+03  2.14286E-01   14   14    4   2     8     11  0.00000E+00
  1    2   20    1  4.67927E+02  3.07754E+03  3.02564E+02  1.00000E+00  3.41952E+04  4.01000E+03  4.01857E+03  3.57143E-01   14   14    4   2     8     11  0.00000E+00
  1    2   20    1  6.73172E+02  3.16908E+03  3.02564E+02  1.00000E+00  2.70345E+04  4.01000E+03  4.01857E+03  5.00000E-01   14   14    4   2     8     11  0.00000E+00
  1    3   19    1  9.08496E+02  3.27415E+03  3.02395E+02  1.00000E+00  2.18168E+04  4.01000E+03  4.01857E+03  6.42857E-01   14   14    4   2     8     11  0.00000E+00
  1    3   19    1  1.17438E+03  3.42216E+03  3.02395E+02  1.00000E+00  1.75311E+04  4.01000E+03  4.01857E+03  7.85714E-01   14   14    4   2     8     11  0.00000E+00
  1    4   18    1  1.51719E+03  3.61850E+03  3.02150E+02  1.00000E+00  1.39442E+04  4.01000E+03  4.01857E+03  9.28571E-01   14   14    4   2     8     11  0.00000E+00
  1    1   19    1  8.00474E+01  3.47319E+03  3.02633E+02  1.00000E+00  6.60385E+04  4.01000E+03  4.02429E+03  7.14286E-02   14   14    4   2     8     11  0.00000E+00
  1    1   19    1  2.48327E+02  3.49955E+03  3.02633E+02  1.00000E+00  4.44621E+04  4.01000E+03  4.02429E+03  2.14286E-01   14   14    4   2     8     11  0.00000E+00
  1    2   18    1  4.27936E+02  3.53178E+03  3.02549E+02  1.00000E+00  3.39790E+04  4.01000E+03  4.02429E+03  3.57143E-01   14   14    4   2     8     11  0.00000E+00
  1    2   18    1  6.27327E+02  3.58183E+03  3.02549E+02  1.00000E+00  2.70459E+04  4.01000E+03  4.02429E+03  5.00000E-01   14   14    4   2     8     11  0.00000E+00
  1    3   18    1  8.52275E+02  3.64094E+03  3.02389E+02  1.00000E+00  2.19234E+04  4.01000E+03  4.02429E+03  6.42857E-01   14   14    4   2     8     11  0.00000E+00
  1    3   17    1  1.11094E+03  3.71262E+03  3.02387E+02  1.00000E+00  1.77890E+04  4.01000E+03  4.02429E+03  7.85714E-01   14   14    4   2     8     11  0.00000E+00
  1    4   17    1  1.46038E+03  3.83362E+03  3.02147E+02  1.00000E+00  1.41078E+04  4.01000E+03  4.02429E+03  9.28571E-01   14   14    4   2     8     11  0.00000E+00
  1    1   14    1  7.93242E+01  4.02998E+03  3.02625E+02  1.00000E+00  6.52091E+04  4.01000E+03  4.03000E+03  7.14286E-02   14   14    4   2     8     11  0.00000E+00
  1    1   14    1  2.44898E+02  4.02997E+03  3.02625E+02  1.00000E+00  4.39277E+04  4.01000E+03  4.03000E+03  2.14286E-01   14   14    4   2     8     11  0.00000E+00
  1    2   14    1  4.15981E+02  4.03005E+03  3.02545E+02  1.00000E+00  3.38262E+04  4.01000E+03  4.03000E+03  3.57143E-01   14   14    4   2     8     11  0.00000E+00
  1    2   14    1  6.06535E+02  4.03002E+03  3.02545E+02  1.00000E+00  2.71006E+04  4.01000E+03  4.03000E+03  5.00000E-01   14   14    4   2     8     11  0.00000E+00
  1    3   14    1  8.24172E+02  4.03000E+03  3.02386E+02  1.00000E+00  2.20908E+04  4.01000E+03  4.03000E+03  6.42857E-01   14   14    4   2     8     11  0.00000E+00
  1    3   14    1  1.08236E+03  4.03000E+03  3.02386E+02  1.00000E+00  1.79775E+04  4.01000E+03  4.03000E+03  7.85714E-01   14   14    4   2     8     11  0.00000E+00
  1    4   14    1  1.44318E+03  4.03001E+03  3.02146E+02  1.00000E+00  1.41647E+04  4.01000E+03  4.03000E+03  9.28571E-01   14   14    4   2     8     11  0.00000E+00
  1    1    9    1  8.00518E+01  4.58680E+03  3.02633E+02  1.00000E+00  6.60382E+04  4.01000E+03  4.03571E+03  7.14286E-02   14   14    4   2     8     11  0.00000E+00
  1    1    9    1  2.48343E+02  4.56045E+03  3.02633E+02  1.00000E+00  4.44622E+04  4.01000E+03  4.03571E+03  2.14286E-01   14   14    4   2     8     11  0.00000E+00
  1    2   10    1  4.27939E+02  4.52821E+03  3.02549E+02  1.00000E+00  3.39789E+04  4.01000E+03  4.03571E+03  3.57143E-01   14   14    4   2     8     11  0.00000E+00
  1    2   10    1  6.27304E+02  4.47818E+03  3.02549E+02  1.00000E+00  2.70461E+04  4.01000E+03  4.03571E+03  5.00000E-01   14   14    4   2     8     11  0.00000E+00
  1    3   10    1  8.52269E+02  4.41907E+03  3.02389E+02  1.00000E+00  2.19235E+04  4.01000E+03  4.03571E+03  6.42857E-01   14   14    4   2     8     11  0.00000E+00
  1    3   11    1  1.11094E+03  4.34741E+03  3.02387E+02  1.00000E+00  1.77890E+04  4.01000E+03  4.03571E+03  7.85714E-01   14   14    4   2     8     11  0.00000E+00
  1    4   11    1  1.46037E+03  4.22640E+03  3.02147E+02  1.00000E+00  1.41079E+04  4.01000E+03  4.03571E+03  9.28571E-01   14   14    4   2     8     11  0.00000E+00
  1    1    8    1  8.76301E+01  5.16459E+03  3.02642E+02  1.00000E+00  6.77082E+04  4.01000E+03  4.04143E+03  7.14286E-02   14   14    4   2     8     11  0.00000E+00
  1    1    8    1  2.74548E+02  5.05716E+03  3.02642E+02  1.00000E+00  4.50594E+04  4.01000E+03  4.04143E+03  2.14286E-01   14   14    4   2     8     11  0.00000E+00
  1    2    8    1  4.67930E+02  4.98247E+03  3.02564E+02  1.00000E+00  3.41951E+04  4.01000E+03  4.04143E+03  3.57143E-01   14   14    4   2     8     11  0.00000E+00
  1    2    8    1  6.73163E+02  4.89092E+03  3.02564E+02  1.00000E+00  2.70346E+04  4.01000E+03  4.04143E+03  5.00000E-01   14   14    4   2     8     11  0.00000E+00
  1    3    9    1  9.08489E+02  4.78586E+03  3.02395E+02  1.00000E+00  2.18168E+04  4.01000E+03  4.04143E+03  6.42857E-01   14   14    4   2     8     11  0.00000E+00
  1    3    9    1  1.17438E+03  4.63783E+03  3.02395E+02  1.00000E+00  1.75311E+04  4.01000E+03  4.04143E+03  7.85714E-01   14   14    4   2     8     11  0.00000E+00
  1    4   10    1  1.51719E+03  4.44150E+03  3.02150E+02  1.00000E+00  1.39442E+04  4.01000E+03  4.04143E+03  9.28571E-01   14   14    4   2     8     11  0.00000E+00
  1    1    7    1  1.04335E+02  5.62919E+03  3.02657E+02  1.00000E+00  6.84849E+04  4.01000E+03  4.04714E+03  7.14286E-02   14   14    4   2     8     11  0.00000E+00
  1    1    7    1  3.10471E+02  5.49139E+03  3.02657E+02  1.00000E+00  4.58051E+04  4.01000E+03  4.04714E+03  2.14286E-01   14   14    4   2     8     11  0.00000E+00
  1    2    7    1  5.24399E+02  5.38515E+03  3.02579E+02  1.00000E+00  3.45012E+04  4.01000E+03  4.04714E+03  3.57143E-01   14   14    4   2     8     11  0.00000E+00
  1    2    8    1  7.42920E+02  5.25888E+03  3.02564E+02  1.00000E+00  2.71419E+04  4.01000E+03  4.04714E+03  5.00000E-01   14   14    4   2     8     11  0.00000E+00
  1    3    8    1  9.87591E+02  5.10155E+03  3.02406E+02  1.00000E+00  2.18313E+04  4.01000E+03  4.04714E+03  6.42857E-01   14   14    4   2     8     11  0.00000E+00
  1    4    8    1  1.24031E+03  4.89861E+03  3.02170E+02  1.00000E+00  1.74885E+04  4.01000E+03  4.04714E+03  7.85714E-01   14   14    4   2     8     11  0.00000E+00
  1    4    9    1  1.57862E+03  4.64387E+03  3.02157E+02  1.00000E+00  1.39204E+04  4.01000E+03  4.04714E+03  9.28571E-01   14   14    4   2     8     11  0.00000E+00
  1    2   26    1  4.13738E+02  6.68153E+02  3.02658E+02  1.00000E+00  8.10187E+04  4.05000E+03  4.01286E+03  7.14286E-02   14   14    4   2     8     11  0.00000E+00
  1    3   25    1  1.07077E+03  9.05293E+02  3.02499E+02  1.00000E+00  5.34287E+04  4.05000E+03  4.01286E+03  2.14286E-01   14   14    4   2     8     11  0.00000E+00
  1    5   24    1  1.66455E+03  1.20720E+03  3.01959E+02  1.00000E+00  3.88010E+04  4.05000E+03  4.01286E+03  3.57143E-01   14   14    4   2     8     11  0.00000E+00
  1    6   23    1  2.08399E+03  1.61920E+03  3.01554E+02  1.00000E+00  2.94542E+04  4.05000E+03  4.01286E+03  5.00000E-01   14   14    4   2     8     11  0.00000E+00
  1    6   22    1  2.34739E+03  2.10087E+03  3.01522E+02  1.00000E+00  2.28171E+04  4.05000E+03  4.01286E+03  6.42857E-01   14   14    4   2     8     11  0.00000E+00
  1    7   21    1  2.49097E+03  2.59328E+03  3.01020E+02  1.00000E+00  1.77870E+04  4.05000E+03  4.01286E+03  7.85714E-01   14   14    4   2     8     11  0.00000E+00
  1    7   20    1  2.48412E+03  3.07587E+03  3.00984E+02  1.00000E+00  1.34031E+04  4.05000E+03  4.01286E+03  9.28571E-01   14   14    4   2     8     11  0.00000E+00
  1    2   26    1  5.27819E+02  6.16504E+02  3.02658E+02  1.00000E+00  8.41119E+04  4.05000E+03  4.01857E+03  7.14286E-02   14   14    4   2     8     11  0.00000E+00
  1    4   25    1  1.32329E+03  9.13478E+02  3.02277E+02  1.00000E+00  5.58068E+04  4.05000E+03  4.01857E+03  2.14286E-01   14   14    4   2     8     11  0.00000E+00
  1    5   24    1  1.96133E+03  1.32338E+03  3.01959E+02  1.00000E+00  4.12566E+04  4.05000E+03  4.01857E+03  3.57143E-01   14   14    4   2     8     11  0.00000E+00
  1    6   23    1  2.35795E+03  1.85680E+03  3.01554E+02  1.00000E+00  3.15567E+04  4.05000E+03  4.01857E+03  5.00000E-01   14   14    4   2     8     11  0.00000E+00
  1    7   21    1  2.60163E+03  2.40212E+03  3.01020E+02  1.00000E+00  2.39140E+04  4.05000E+03  4.01857E+03  6.42857E-01   14   14    4   2     8     11  0.00000E+00
  1    7   20    1  2.69560E+03  2.88264E+03  3.00984E+02  1.00000E+00  1.71964E+04  4.05000E+03  4.01857E+03  7.85714E-01   14   14    4   2     8     11  0.00000E+00
  1    7   19    1  2.65797E+03  3.29214E+03  3.00960E+02  1.00000E+00  1.31478E+04  4.05000E+03  4.01857E+03  9.28571E-01   14   14    4   2     8     11  0.00000E+00
  1    2   26    1  7.23413E+02  6.05723E+02  3.02658E+02  1.00000E+00  9.08161E+04  4.05000E+03  4.02429E+03  7.14286E-02   14   14    4   2     8     11  0.00000E+00
  1    5   25    1  1.66946E+03  1.00964E+03  3.01979E+02  1.00000E+00  6.19348E+04  4.05000E+03  4.02429E+03  2.14286E-01   14   14    4   2     8     11  0.00000E+00
  1    6   23    1  2.33724E+03  1.63890E+03  3.01554E+02  1.00000E+00  4.62551E+04  4.05000E+03  4.02429E+03  3.57143E-01   14   14    4   2     8     11  0.00000E+00
  1    7   22    1  2.71347E+03  2.37955E+03  3.01059E+02  1.00000E+00  3.38416E+04  4.05000E+03  4.02429E+03  5.00000E-01   14   14    4   2     8     11  0.00000E+00
  1    8   20    1  2.84344E+03  2.94338E+03  3.00430E+02  1.00000E+00  2.33610E+04  4.05000E+03  4.02429E+03  6.42857E-01   14   14    4   2     8     11  0.00000E+00
  1    8   19    1  2.88441E+03  3.37177E+03  3.00399E+02  1.00000E+00  1.83653E+04  4.05000E+03  4.02429E+03  7.85714E-01   14   14    4   2     8     11  0.00000E+00
  1    8   18    1  2.80253E+03  3.66134E+03  3.00384E+02  1.00000E+00  1.31836E+04  4.05000E+03  4.02429E+03  9.28571E-01   14   14    4   2     8     11  0.00000E+00
  1    8   14    1  3.14431E+03  4.03911E+03  3.00373E+02  1.00000E+00  1.47721E+05  4.05000E+03  4.03000E+03  7.14286E-02   14   14    4   2     8     11  0.00000E+00
  1    8   14    1  3.14369E+03  4.02952E+03  3.00373E+02  1.00000E+00  8.65008E+04  4.05000E+03  4.03000E+03  2.14286E-01   14   14    4   2     8     11  0.00000E+00
  1    8   14    1  3.13925E+03  4.03002E+03  3.00373E+02  1.00000E+00  4.73805E+04  4.05000E+03  4.03000E+03  3.57143E-01   14   14    4   2     8     11  0.00000E+00
  1    8   14    1  3.12313E+03  4.02999E+03  3.00373E+02  1.00000E+00  3.43450E+04  4.05000E+03  4.03000E+03  5.00000E-01   14   14    4   2     8     11  0.00000E+00
  1    8   14    1  3.08445E+03  4.03000E+03  3.00373E+02  1.00000E+00  2.57090E+04  4.05000E+03  4.03000E+03  6.42857E-01   14   14    4   2     8     11  0.00000E+00
  1    8   14    1  3.01347E+03  4.03001E+03  3.00373E+02  1.00000E+00  1.78512E+04  4.05000E+03  4.03000E+03  7.85714E-01   14   14    4   2     8     11  0.00000E+00
  1    8   14    1  2.85762E+03  4.03001E+03  3.00373E+02  1.00000E+00  1.30481E+04  4.05000E+03  4.03000E+03  9.28571E-01   14   14    4   2     8     11  0.00000E+00
  1    2    2    1  7.23423E+02  7.45421E+03  3.02658E+02  1.00000E+00  9.08159E+04  4.05000E+03  4.03571E+03  7.14286E-02   14   14    4   2     8     11  0.00000E+00
  1    5    3    1  1.66944E+03  7.05034E+03  3.01979E+02  1.00000E+00  6.19349E+04  4.05000E+03  4.03571E+03  2.14286E-01   14   14    4   2     8     11  0.00000E+00
  1    6    5    1  2.33726E+03  6.42105E+03  3.01554E+02  1.00000E+00  4.62546E+04  4.05000E+03  4.03571E+03  3.57143E-01   14   14    4   2     8     11  0.00000E+00
  1    7    6    1  2.71346E+03  5.68046E+03  3.01059E+02  1.00000E+00  3.38417E+04  4.05000E+03  4.03571E+03  5.00000E-01   14   14    4   2     8     11  0.00000E+00
  1    8    8    1  2.84344E+03  5.11663E+03  3.00430E+02  1.00000E+00  2.33610E+04  4.05000E+03  4.03571E+03  6.42857E-01   14   14    4   2     8     11  0.00000E+00
  1    8    9    1  2.88441E+03  4.68822E+03  3.00399E+02  1.00000E+00  1.83653E+04  4.05000E+03  4.03571E+03  7.85714E-01   14   14    4   2     8     11  0.00000E+00
  1    8   10    1  2.80253E+03  4.39865E+03  3.00384E+02  1.00000E+00  1.31836E+04  4.05000E+03  4.03571E+03  9.28571E-01   14   14    4   2     8     11  0.00000E+00
  1    2    2    1  5.27819E+02  7.44343E+03  3.02658E+02  1.00000E+00  8.41120E+04  4.05000E+03  4.04143E+03  7.14286E-02   14   14    4   2     8     11  0.00000E+00
  1    4    3    1  1.32327E+03  7.14648E+03  3.02277E+02  1.00000E+00  5.58066E+04  4.05000E+03  4.04143E+03  2.14286E-01   14   14    4   2     8     11  0.00000E+00
  1    5    4    1  1.96130E+03  6.73663E+03  3.01959E+02  1.00000E+00  4.12568E+04  4.05000E+03  4.04143E+03  3.57143E-01   14   14    4   2     8     11  0.00000E+00
  1    6    5    1  2.35795E+03  6.20317E+03  3.01554E+02  1.00000E+00  3.15566E+04  4.05000E+03  4.04143E+03  5.00000E-01   14   14    4   2     8     11  0.00000E+00
  1    7    7    1  2.60163E+03  5.65791E+03  3.01020E+02  1.00000E+00  2.39143E+04  4.05000E+03  4.04143E+03  6.42857E-01   14   14    4   2     8     11  0.00000E+00
  1    7    8    1  2.69561E+03  5.17736E+03  3.00984E+02  1.00000E+00  1.71964E+04  4.05000E+03  4.04143E+03  7.85714E-01   14   14    4   2     8     11  0.00000E+00
  1    7    9    1  2.65797E+03  4.76786E+03  3.00960E+02  1.00000E+00  1.31478E+04  4.05000E+03  4.04143E+03  9.28571E-01   14   14    4   2     8     11  0.00000E+00
  1    2    2    1  4.13736E+02  7.39178E+03  3.02658E+02  1.00000E+00  8.10194E+04  4.05000E+03  4.04714E+03  7.14286E-02   14   14    4   2     8     11  0.00000E+00
  1    3    3    1  1.07077E+03  7.15466E+03  3.02499E+02  1.00000E+00  5.34286E+04  4.05000E+03  4.04714E+03  2.14286E-01   14   14    4   2     8     11  0.00000E+00
  1    5    4    1  1.66449E+03  6.85280E+03  3.01959E+02  1.00000E+00  3.88016E+04  4.05000E+03  4.04714E+03  3.57143E-01   14   14    4   2     8     11  0.00000E+00
  1    6    5    1  2.08398E+03  6.44078E+03  3.01554E+02  1.00000E+00  2.94541E+04  4.05000E+03  4.04714E+03  5.00000E-01   14   14    4   2     8     11  0.00000E+00
  1    6    6    1  2.34739E+03  5.95912E+03  3.01522E+02  1.00000E+00  2.28171E+04  4.05000E+03  4.04714E+03  6.42857E-01   14   14    4   2     8     11  0.00000E+00
  1    7    7    1  2.49096E+03  5.46673E+03  3.01020E+02  1.00000E+00  1.77870E+04  4.05000E+03  4.04714E+03  7.85714E-01   14   14    4   2     8     11  0.00000E+00
  1    7    8    1  2.48411E+03  4.98413E+03  3.00984E+02  1.00000E+00  1.34031E+04  4.05000E+03  4.04714E+03  9.28571E-01   14   14    4   2     8     11  0.00000E+00
  1    1   22    1  1.28852E+02  2.00460E+03  3.02674E+02  1.00000E+00  6.95924E+04  4.01286E+03  4.01000E+03  7.14286E-02   14   14    4   2     8     11  0.00000E+00
  1    1   22    1  3.60642E+02  2.20408E+03  3.02674E+02  1.00000E+00  4.63505E+04  4.01286E+03  4.01000E+03  2.14286E-01   14   14    4   2     8     11  0.00000E+00
  1    2   22    1  5.98457E+02  2.32963E+03  3.02597E+02  1.00000E+00  3.47124E+04  4.01286E+03  4.01000E+03  3.57143E-01   14   14    4   2     8     11  0.00000E+00
  1    3   21    1  8.38886E+02  2.48095E+03  3.02424E+02  1.00000E+00  2.72559E+04  4.01286E+03  4.01000E+03  5.00000E-01   14   14    4   2     8     11  0.00000E+00
  1    3   21    1  1.08417E+03  2.66609E+03  3.02424E+02  1.00000E+00  2.18418E+04  4.01286E+03  4.01000E+03  6.42857E-01   14   14    4   2     8     11  0.00000E+00
  1    4   20    1  1.35107E+03  2.88063E+03  3.02170E+02  1.00000E+00  1.74555E+04  4.01286E+03  4.01000E+03  7.85714E-01   14   14    4   2     8     11  0.00000E+00
  1    5   19    1  1.65187E+03  3.25958E+03  3.01838E+02  1.00000E+00  1.37557E+04  4.01286E+03  4.01000E+03  9.28571E-01   14   14    4   2     8     11  0.00000E+00
  1    1   23    1  1.63383E+02  1.69460E+03  3.02691E+02  1.00000E+00  6.96445E+04  4.01857E+03  4.01000E+03  7.14286E-02   14   14    4   2     8     11  0.00000E+00
  1    2   23    1  4.33260E+02  1.89720E+03  3.02616E+02  1.00000E+00  4.62332E+04  4.01857E+03  4.01000E+03  2.14286E-01   14   14    4   2     8     11  0.00000E+00
  1    2   22    1  6.94237E+02  2.01845E+03  3.02597E+02  1.00000E+00  3.49055E+04  4.01857E+03  4.01000E+03  3.57143E-01   14   14    4   2     8     11  0.00000E+00
  1    3   22    1  9.50344E+02  2.18799E+03  3.02444E+02  1.00000E+00  2.74866E+04  4.01857E+03  4.01000E+03  5.00000E-01   14   14    4   2     8     11  0.00000E+00
  1    3   21    1  1.18977E+03  2.41093E+03  3.02424E+02  1.00000E+00  2.19917E+04  4.01857E+03  4.01000E+03  6.42857E-01   14   14    4   2     8     11  0.00000E+00
  1    4   21    1  1.45085E+03  2.67615E+03  3.02191E+02  1.00000E+00  1.76078E+04  4.01857E+03  4.01000E+03  7.85714E-01   14   14    4   2     8     11  0.00000E+00
  1    5   20    1  1.71899E+03  3.09052E+03  3.01855E+02  1.00000E+00  1.39960E+04  4.01857E+03  4.01000E+03  9.28571E-01   14   14    4   2     8     11  0.00000E+00
  1    1   24    1  2.02834E+02  1.42717E+03  3.02708E+02  1.00000E+00  7.00203E+04  4.02429E+03  4.01000E+03  7.14286E-02   14   14    4   2     8     11  0.00000E+00
  1    2   23    1  5.13081E+02  1.61961E+03  3.02616E+02  1.00000E+00  4.66695E+04  4.02429E+03  4.01000E+03  2.14286E-01   14   14    4   2     8     11  0.00000E+00
  1    3   23    1  8.09130E+02  1.75454E+03  3.02464E+02  1.00000E+00  3.52591E+04  4.02429E+03  4.01000E+03  3.57143E-01   14   14    4   2     8     11  0.00000E+00
  1    3   23    1  1.07196E+03  1.93568E+03  3.02464E+02  1.00000E+00  2.77790E+04  4.02429E+03  4.01000E+03  5.00000E-01   14   14    4   2     8     11  0.00000E+00
  1    4   22    1  1.32443E+03  2.17244E+03  3.02214E+02  1.00000E+00  2.23337E+04  4.02429E+03  4.01000E+03  6.42857E-01   14   14    4   2     8     11  0.00000E+00
  1    4   21    1  1.57266E+03  2.47120E+03  3.02191E+02  1.00000E+00  1.78085E+04  4.02429E+03  4.01000E+03  7.85714E-01   14   14    4   2     8     11  0.00000E+00
  1    5   20    1  1.83157E+03  2.92748E+03  3.01855E+02  1.00000E+00  1.39775E+04  4.02429E+03  4.01000E+03  9.28571E-01   14   14    4   2     8     11  0.00000E+00
  1    1   24    1  2.40892E+02  1.22578E+03  3.02708E+02  1.00000E+00  7.05631E+04  4.03000E+03  4.01000E+03  7.14286E-02   14   14    4   2     8     11  0.00000E+00
  1    2   24    1  6.15756E+02  1.39624E+03  3.02633E+02  1.00000E+00  4.68900E+04  4.03000E+03  4.01000E+03  2.14286E-01   14   14    4   2     8     11  0.00000E+00
  1    3   24    1  9.39582E+02  1.53277E+03  3.02483E+02  1.00000E+00  3.55807E+04  4.03000E+03  4.01000E+03  3.57143E-01   14   14    4   2     8     11  0.00000E+00
  1    4   23    1  1.22757E+03  1.72955E+03  3.02237E+02  1.00000E+00  2.81313E+04  4.03000E+03  4.01000E+03  5.00000E-01   14   14    4   2     8     11  0.00000E+00
  1    4   23    1  1.48027E+03  1.99131E+03  3.02237E+02  1.00000E+00  2.25076E+04  4.03000E+03  4.01000E+03  6.42857E-01   14   14    4   2     8     11  0.00000E+00
  1    5   22    1  1.71076E+03  2.32761E+03  3.01906E+02  1.00000E+00  1.79542E+04  4.03000E+03  4.01000E+03  7.85714E-01   14   14    4   2     8     11  0.00000E+00
  1    5   20    1  1.93845E+03  2.83879E+03  3.01855E+02  1.00000E+00  1.39309E+04  4.03000E+03  4.01000E+03  9.28571E-01   14   14    4   2     8     11  0.00000E+00
  1    1   25    1  2.68803E+02  1.05061E+03  3.02721E+02  1.00000E+00  7.28353E+04  4.03571E+03  4.01000E+03  7.14286E-02   14   14    4   2     8     11  0.00000E+00
  1    2   24    1  6.89336E+02  1.20724E+03  3.02633E+02  1.00000E+00  4.85398E+04  4.03571E+03  4.01000E+03  2.14286E-01   14   14    4   2     8     11  0.00000E+00
  1    3   24    1  1.09079E+03  1.36322E+03  3.02483E+02  1.00000E+00  3.62187E+04  4.03571E+03  4.01000E+03  3.57143E-01   14   14    4   2     8     11  0.00000E+00
  1    4   24    1  1.41168E+03  1.59380E+03  3.02259E+02  1.00000E+00  2.82515E+04  4.03571E+03  4.01000E+03  5.00000E-01   14   14    4   2     8     11  0.00000E+00
  1    5   23    1  1.67193E+03  1.89634E+03  3.01934E+02  1.00000E+00  2.25268E+04  4.03571E+03  4.01000E+03  6.42857E-01   14   14    4   2     8     11  0.00000E+00
  1    5   22    1  1.89034E+03  2.27468E+03  3.01906E+02  1.00000E+00  1.78512E+04  4.03571E+03  4.01000E+03  7.85714E-01   14   14    4   2     8     11  0.00000E+00
  1    6   20    1  2.06024E+03  2.81111E+03  3.01459E+02  1.00000E+00  1.37715E+04  4.03571E+03  4.01000E+03  9.28571E-01   14   14    4   2     8     11  0.00000E+00
  1    1   25    1  2.93181E+02  8.80344E+02  3.02721E+02  1.00000E+00  7.64289E+04  4.04143E+03  4.01000E+03  7.14286E-02   14   14    4   2     8     11  0.00000E+00
  1    2   25    1  7.93120E+02  1.06681E+03  3.02647E+02  1.00000E+00  5.00474E+04  4.04143E+03  4.01000E+03  2.14286E-01   14   14    4   2     8     11  0.00000E+00
  1    4   24    1  1.25225E+03  1.25139E+03  3.02259E+02  1.00000E+00  3.69515E+04  4.04143E+03  4.01000E+03  3.57143E-01   14   14    4   2     8     11  0.00000E+00
  1    5   24    1  1.61602E+03  1.52643E+03  3.01959E+02  1.00000E+00  2.84384E+04  4.04143E+03  4.01000E+03  5.00000E-01   14   14    4   2     8     11  0.00000E+00
  1    5   23    1  1.88777E+03  1.87912E+03  3.01934E+02  1.00000E+00  2.24499E+04  4.04143E+03  4.01000E+03  6.42857E-01   14   14    4   2     8     11  0.00000E+00
  1    6   22    1  2.10135E+03  2.31041E+03  3.01522E+02  1.00000E+00  1.73600E+04  4.04143E+03  4.01000E+03  7.85714E-01   14   14    4   2     8     11  0.00000E+00
  1    6   20    1  2.21131E+03  2.85369E+03  3.01459E+02  1.00000E+00  1.35605E+04  4.04143E+03  4.01000E+03  9.28571E-01   14   14    4   2     8     11  0.00000E+00
  1    1   26    1  3.39297E+02  7.62400E+02  3.02731E+02  1.00000E+00  7.84695E+04  4.04714E+03  4.01000E+03  7.14286E-02   14   14    4   2     8     11  0.00000E+00
  1    3   25    1  9.08803E+02  9.60617E+02  3.02499E+02  1.00000E+00  5.17252E+04  4.04714E+03  4.01000E+03  2.14286E-01   14   14    4   2     8     11  0.00000E+00
  1    4   25    1  1.43576E+03  1.19080E+03  3.02277E+02  1.00000E+00  3.78311E+04  4.04714E+03  4.01000E+03  3.57143E-01   14   14    4   2     8     11  0.00000E+00
  1    5   24    1  1.83799E+03  1.52537E+03  3.01959E+02  1.00000E+00  2.87443E+04  4.04714E+03  4.01000E+03  5.00000E-01   14   14    4   2     8     11  0.00000E+00
  1    6   23    1  2.11648E+03  1.93361E+03  3.01554E+02  1.00000E+00  2.23486E+04  4.04714E+03  4.01000E+03  6.42857E-01   14   14    4   2     8     11  0.00000E+00
  1    6   22    1  2.29279E+03  2.39031E+03  3.01522E+02  1.00000E+00  1.73335E+04  4.04714E+03  4.01000E+03  7.85714E-01   14   14    4   2     8     11  0.00000E+00
  1    6   20    1  2.35018E+03  2.93618E+03  3.01459E+02  1.00000E+00  1.35126E+04  4.04714E+03  4.01000E+03  9.28571E-01   14   14    4   2     8     11  0.00000E+00
  1    1    6    1  1.28864E+02  6.05539E+03  3.02674E+02  1.00000E+00  6.95928E+04  4.01286E+03  4.05000E+03  7.14286E-02   14   14    4   2     8     11  0.00000E+00
  1    1    6    1  3.60659E+02  5.85591E+03  3.02674E+02  1.00000E+00  4.63509E+04  4.01286E+03  4.05000E+03  2.14286E-01   14   14    4   2     8     11  0.00000E+00
  1    2    6    1  5.98454E+02  5.73038E+03  3.02597E+02  1.00000E+00  3.47129E+04  4.01286E+03  4.05000E+03  3.57143E-01   14   14    4   2     8     11  0.00000E+00
  1    3    7    1  8.38879E+02  5.57906E+03  3.02424E+02  1.00000E+00  2.72560E+04  4.01286E+03  4.05000E+03  5.00000E-01   14   14    4   2     8     11  0.00000E+00
  1    3    7    1  1.08417E+03  5.39391E+03  3.02424E+02  1.00000E+00  2.18418E+04  4.01286E+03  4.05000E+03  6.42857E-01   14   14    4   2     8     11  0.00000E+00
  1    4    8    1  1.35107E+03  5.17937E+03  3.02170E+02  1.00000E+00  1.74555E+04  4.01286E+03  4.05000E+03  7.85714E-01   14   14    4   2     8     11  0.00000E+00
  1    5    9    1  1.65187E+03  4.80042E+03  3.01838E+02  1.00000E+00  1.37557E+04  4.01286E+03  4.05000E+03  9.28571E-01   14   14    4   2     8     11  0.00000E+00
  1    1    5    1  1.63393E+02  6.36539E+03  3.02691E+02  1.00000E+00  6.96456E+04  4.01857E+03  4.05000E+03  7.14286E-02   14   14    4   2     8     11  0.00000E+00
  1    2    5    1  4.33270E+02  6.16280E+03  3.02616E+02  1.00000E+00  4.62339E+04  4.01857E+03  4.05000E+03  2.14286E-01   14   14    4   2     8     11  0.00000E+00
  1    2    6    1  6.94236E+02  6.04156E+03  3.02597E+02  1.00000E+00  3.49058E+04  4.01857E+03  4.05000E+03  3.57143E-01   14   14    4   2     8     11  0.00000E+00
  1    3    6    1  9.50343E+02  5.87202E+03  3.02444E+02  1.00000E+00  2.74867E+04  4.01857E+03  4.05000E+03  5.00000E-01   14   14    4   2     8     11  0.00000E+00
  1    3    7    1  1.18977E+03  5.64908E+03  3.02424E+02  1.00000E+00  2.19918E+04  4.01857E+03  4.05000E+03  6.42857E-01   14   14    4   2     8     11  0.00000E+00
  1    4    7    1  1.45085E+03  5.38386E+03  3.02191E+02  1.00000E+00  1.76079E+04  4.01857E+03  4.05000E+03  7.85714E-01   14   14    4   2     8     11  0.00000E+00
  1    5    8    1  1.71899E+03  4.96949E+03  3.01855E+02  1.00000E+00  1.39961E+04  4.01857E+03  4.05000E+03  9.28571E-01   14   14    4   2     8     11  0.00000E+00
  1    1    4    1  2.02840E+02  6.63285E+03  3.02708E+02  1.00000E+00  7.00214E+04  4.02429E+03  4.05000E+03  7.14286E-02   14   14    4   2     8     11  0.00000E+00
  1    2    5    1  5.13090E+02  6.44040E+03  3.02616E+02  1.00000E+00  4.66701E+04  4.02429E+03  4.05000E+03  2.14286E-01   14   14    4   2     8     11  0.00000E+00
  1    3    5    1  8.09139E+02  6.30548E+03  3.02464E+02  1.00000E+00  3.52593E+04  4.02429E+03  4.05000E+03  3.57143E-01   14   14    4   2     8     11  0.00000E+00
  1    3    5    1  1.07196E+03  6.12433E+03  3.02464E+02  1.00000E+00  2.77790E+04  4.02429E+03  4.05000E+03  5.00000E-01   14   14    4   2     8     11  0.00000E+00
  1    4    6    1  1.32443E+03  5.88764E+03  3.02214E+02  1.00000E+00  2.23337E+04  4.02429E+03  4.05000E+03  6.42857E-01   14   14    4   2     8     11  0.00000E+00
  1    4    7    1  1.57266E+03  5.58881E+03  3.02191E+02  1.00000E+00  1.78086E+04  4.02429E+03  4.05000E+03  7.85714E-01   14   14    4   2     8     11  0.00000E+00
  1    5    8    1  1.83157E+03  5.13253E+03  3.01855E+02  1.00000E+00  1.39775E+04  4.02429E+03  4.05000E+03  9.28571E-01   14   14    4   2     8     11  0.00000E+00
  1    1    4    1  2.40901E+02  6.83421E+03  3.02708E+02  1.00000E+00  7.05634E+04  4.03000E+03  4.05000E+03  7.14286E-02   14   14    4   2     8     11  0.00000E+00
  1    2    4    1  6.15779E+02  6.66375E+03  3.02633E+02  1.00000E+00  4.68901E+04  4.03000E+03  4.05000E+03  2.14286E-01   14   14    4   2     8     11  0.00000E+00
  1    3    4    1  9.39592E+02  6.52724E+03  3.02483E+02  1.00000E+00  3.55806E+04  4.03000E+03  4.05000E+03  3.57143E-01   14   14    4   2     8     11  0.00000E+00
  1    4    5    1  1.22757E+03  6.33046E+03  3.02237E+02  1.00000E+00  2.81314E+04  4.03000E+03  4.05000E+03  5.00000E-01   14   14    4   2     8     11  0.00000E+00
  1    4    5    1  1.48029E+03  6.06875E+03  3.02237E+02  1.00000E+00  2.25076E+04  4.03000E+03  4.05000E+03  6.42857E-01   14   14    4   2     8     11  0.00000E+00
  1    5    6    1  1.71077E+03  5.73241E+03  3.01906E+02  1.00000E+00  1.79542E+04  4.03000E+03  4.05000E+03  7.85714E-01   14   14    4   2     8     11  0.00000E+00
  1    5    8    1  1.93845E+03  5.22121E+03  3.01855E+02  1.00000E+00  1.39308E+04  4.03000E+03  4.05000E+03  9.28571E-01   14   14    4   2     8     11  0.00000E+00
  1    1    3    1  2.68841E+02  7.00938E+03  3.02721E+02  1.00000E+00  7.28355E+04  4.03571E+03  4.05000E+03  7.14286E-02   14   14    4   2     8     11  0.00000E+00
  1    2    4    1  6.89381E+02  6.85274E+03  3.02633E+02  1.00000E+00  4.85391E+04  4.03571E+03  4.05000E+03  2.14286E-01   14   14    4   2     8     11  0.00000E+00