@ [ MODPATH Version 3.00 (V3, Release 2, 6-2000)(COMPACT)(TREF=   0.000000E+00 ) ]
  2   2552  4.05000E+03  4.03000E+03  8.70706E-01  1.22480E+04  2.81250E+03  4.03000E+03  9.99900E-01    359   1     1     11  0.00000E+00
  2   2552  4.05000E+03  4.03000E+03  8.55309E-01  1.26300E+04  2.83750E+03  4.03000E+03  9.99900E-01    359   1     1     11  0.00000E+00
  2   2552  4.05000E+03  4.03000E+03  8.38329E-01  1.30673E+04  2.86250E+03  4.03000E+03  9.99900E-01    359   1     1     11  0.00000E+00
  2   2552  4.05000E+03  4.03000E+03  8.19270E-01  1.33685E+04  2.88750E+03  4.03000E+03  9.99900E-01    359   1     1     11  0.00000E+00
  2   2552  4.05000E+03  4.03000E+03  7.98518E-01  1.44920E+04  2.91250E+03  4.03000E+03  9.99900E-01    359   1     1     11  0.00000E+00
  2   2552  4.05000E+03  4.03000E+03  7.75898E-01  1.52143E+04  2.93750E+03  4.03000E+03  9.99900E-01    359   1     1     11  0.00000E+00
  2   2552  4.05000E+03  4.03000E+03  7.50841E-01  1.60598E+04  2.96250E+03  4.03000E+03  9.99900E-01    359   1     1     11  0.00000E+00
  2   2552  4.05000E+03  4.03000E+03  7.23198E-01  1.71314E+04  2.98750E+03  4.03000E+03  9.99900E-01    359   1     1     11  0.00000E+00
  2   2552  4.05000E+03  4.03000E+03  6.91225E-01  1.81637E+04  3.01250E+03  4.03000E+03  9.99900E-01    359   1     1     11  0.00000E+00
  1   1828  4.69656E+03  4.02996E+03  2.55022E-01  1.82500E+04  3.03750E+03  4.03000E+03  9.99900E-01    359   1     1     10  0.00000E+00
  1   1829  5.09815E+03  4.02994E+03  8.57054E-01  1.82500E+04  3.06250E+03  4.03000E+03  9.99900E-01    359   1     1     10  0.00000E+00
  1   1101  5.30116E+03  4.02993E+03  2.31762E-01  1.82500E+04  3.08750E+03  4.03000E+03  9.99900E-01    359   1     1     10  0.00000E+00
  1   1101  5.46416E+03  4.02993E+03  2.39745E-01  1.82500E+04  3.11250E+03  4.03000E+03  9.99900E-01    359   1     1     10  0.00000E+00
  1   1101  5.62531E+03  4.02993E+03  2.47367E-01  1.82500E+04  3.13750E+03  4.03000E+03  9.99900E-01    359   1     1     10  0.00000E+00
  1   1102  5.72772E+03  4.02992E+03  7.32170E-01  1.82500E+04  3.16250E+03  4.03000E+03  9.99900E-01    359   1     1     10  0.00000E+00
  1   1102  5.91967E+03  4.02993E+03  7.42197E-01  1.82500E+04  3.18750E+03  4.03000E+03  9.99900E-01    359   1     1     10  0.00000E+00
  1   1103  6.08492E+03  4.02993E+03  7.81980E-01  1.82500E+04  3.20938E+03  4.03000E+03  9.99900E-01    360   1     1     10  0.00000E+00
  1    374  6.07592E+03  4.02992E+03 -3.93165E-01  1.82500E+04  3.22813E+03  4.03000E+03  9.99900E-01    360   1     1     10  0.00000E+00
  1    378  8.00513E+03  4.02995E+03  1.00000E+00  9.76690E+03  3.24688E+03  4.03000E+03  9.99900E-01    360   1     1     11  0.00000E+00
  1    378  8.00345E+03  4.02995E+03  1.00000E+00  9.68843E+03  3.26563E+03  4.03000E+03  9.99900E-01    360   1     1     11  0.00000E+00
  1    378  8.00177E+03  4.02996E+03  1.00000E+00  9.61063E+03  3.28438E+03  4.03000E+03  9.99900E-01    360   1     1     11  0.00000E+00
  1    378  8.00009E+03  4.02996E+03  1.00000E+00  9.53346E+03  3.30313E+03  4.03000E+03  9.99900E-01    360   1     1     11  0.00000E+00
  1    378  7.99841E+03  4.02996E+03  1.00000E+00  9.45691E+03  3.32188E+03  4.03000E+03  9.99900E-01    360   1     1     11  0.00000E+00
  1    378  7.99674E+03  4.02997E+03  1.00000E+00  9.38096E+03  3.34063E+03  4.03000E+03  9.99900E-01    360   1     1     11  0.00000E+00
  1    378  7.99507E+03  4.02997E+03  1.00000E+00  9.30559E+03  3.35938E+03  4.03000E+03  9.99900E-01    360   1     1     11  0.00000E+00
  1    378  7.99340E+03  4.02997E+03  1.00000E+00  9.23079E+03  3.37813E+03  4.03000E+03  9.99900E-01    360   1     1     11  0.00000E+00
  1    378  7.99174E+03  4.02997E+03  1.00000E+00  9.15654E+03  3.39688E+03  4.03000E+03  9.99900E-01    360   1     1     11  0.00000E+00
  1    378  7.99008E+03  4.02998E+03  1.00000E+00  9.08282E+03  3.41563E+03  4.03000E+03  9.99900E-01    360   1     1     11  0.00000E+00
  1    378  7.98842E+03  4.02998E+03  1.00000E+00  9.00963E+03  3.43438E+03  4.03000E+03  9.99900E-01    360   1     1     11  0.00000E+00
  1    378  7.98676E+03  4.02998E+03  1.00000E+00  8.93695E+03  3.45313E+03  4.03000E+03  9.99900E-01    360   1     1     11  0.00000E+00
  1    378  7.98511E+03  4.02998E+03  1.00000E+00  8.86476E+03  3.47188E+03  4.03000E+03  9.99900E-01    360   1     1     11  0.00000E+00
  1    378  7.98346E+03  4.02999E+03  1.00000E+00  8.79307E+03  3.49063E+03  4.03000E+03  9.99900E-01    360   1     1     11  0.00000E+00
  2   2552  4.05000E+03  4.03000E+03  8.70706E-01  1.24305E+04  2.81250E+03  4.03000E+03  9.99900E-01    359   1     1     11  1.82500E+02
  2   2552  4.05000E+03  4.03000E+03  8.55310E-01  1.28125E+04  2.83750E+03  4.03000E+03  9.99900E-01    359   1     1     11  1.82500E+02
  2   2552  4.05000E+03  4.03000E+03  8.38328E-01  1.32499E+04  2.86250E+03  4.03000E+03  9.99900E-01    359   1     1     11  1.82500E+02
  2   2552  4.05000E+03  4.03000E+03  8.19271E-01  1.35510E+04  2.88750E+03  4.03000E+03  9.99900E-01    359   1     1     11  1.82500E+02
  2   2552  4.05000E+03  4.03000E+03  7.98516E-01  1.46745E+04  2.91250E+03  4.03000E+03  9.99900E-01    359   1     1     11  1.82500E+02
  2   2552  4.05000E+03  4.03000E+03  7.75898E-01  1.53968E+04  2.93750E+03  4.03000E+03  9.99900E-01    359   1     1     11  1.82500E+02
  2   2552  4.05000E+03  4.03000E+03  7.50840E-01  1.62424E+04  2.96250E+03  4.03000E+03  9.99900E-01    359   1     1     11  1.82500E+02
  2   2552  4.05000E+03  4.03000E+03  7.23200E-01  1.73138E+04  2.98750E+03  4.03000E+03  9.99900E-01    359   1     1     11  1.82500E+02
  1   2556  4.37580E+03  4.02998E+03  8.70134E-01  1.82500E+04  3.01250E+03  4.03000E+03  9.99900E-01    359   1     1     10  1.82500E+02
  1   1828  4.72862E+03  4.02996E+03  3.28640E-01  1.82500E+04  3.03750E+03  4.03000E+03  9.99900E-01    359   1     1     10  1.82500E+02
  1   1829  5.11203E+03  4.02994E+03  8.90412E-01  1.82500E+04  3.06250E+03  4.03000E+03  9.99900E-01    359   1     1     10  1.82500E+02
  1   1101  5.30409E+03  4.02992E+03  2.49950E-01  1.82500E+04  3.08750E+03  4.03000E+03  9.99900E-01    359   1     1     10  1.82500E+02
  1   1101  5.46478E+03  4.02993E+03  2.57938E-01  1.82500E+04  3.11250E+03  4.03000E+03  9.99900E-01    359   1     1     10  1.82500E+02
  1   1101  5.62364E+03  4.02993E+03  2.65560E-01  1.82500E+04  3.13750E+03  4.03000E+03  9.99900E-01    359   1     1     10  1.82500E+02
  1   1102  5.72485E+03  4.02992E+03  7.42501E-01  1.82500E+04  3.16250E+03  4.03000E+03  9.99900E-01    359   1     1     10  1.82500E+02
  1   1102  5.91490E+03  4.02992E+03  7.52546E-01  1.82500E+04  3.18750E+03  4.03000E+03  9.99900E-01    359   1     1     10  1.82500E+02
  1   1103  6.07859E+03  4.02993E+03  7.84423E-01  1.82500E+04  3.20938E+03  4.03000E+03  9.99900E-01    360   1     1     10  1.82500E+02
  1    374  6.07594E+03  4.02992E+03 -3.86620E-01  1.82500E+04  3.22813E+03  4.03000E+03  9.99900E-01    360   1     1     10  1.82500E+02
  1    378  8.00513E+03  4.02995E+03  1.00000E+00  9.94940E+03  3.24688E+03  4.03000E+03  9.99900E-01    360   1     1     11  1.82500E+02
  1    378  8.00345E+03  4.02995E+03  1.00000E+00  9.87093E+03  3.26563E+03  4.03000E+03  9.99900E-01    360   1     1     11  1.82500E+02
  1    378  8.00177E+03  4.02996E+03  1.00000E+00  9.79313E+03  3.28438E+03  4.03000E+03  9.99900E-01    360   1     1     11  1.82500E+02
  1    378  8.00009E+03  4.02996E+03  1.00000E+00  9.71596E+03  3.30313E+03  4.03000E+03  9.99900E-01    360   1     1     11  1.82500E+02
  1    378  7.99841E+03  4.02996E+03  1.00000E+00  9.63941E+03  3.32188E+03  4.03000E+03  9.99900E-01    360   1     1     11  1.82500E+02
  1    378  7.99674E+03  4.02996E+03  1.00000E+00  9.56346E+03  3.34063E+03  4.03000E+03  9.99900E-01    360   1     1     11  1.82500E+02
  1    378  7.99507E+03  4.02997E+03  1.00000E+00  9.48809E+03  3.35938E+03  4.03000E+03  9.99900E-01    360   1     1     11  1.82500E+02
  1    378  7.99340E+03  4.02997E+03  1.00000E+00  9.41329E+03  3.37813E+03  4.03000E+03  9.99900E-01    360   1     1     11  1.82500E+02
  1    378  7.99174E+03  4.02997E+03  1.00000E+00  9.33904E+03  3.39688E+03  4.03000E+03  9.99900E-01    360   1     1     11  1.82500E+02
  1    378  7.99008E+03  4.02998E+03  1.00000E+00  9.26532E+03  3.41563E+03  4.03000E+03  9.99900E-01    360   1     1     11  1.82500E+02
  1    378  7.98842E+03  4.02998E+03  1.00000E+00  9.19213E+03  3.43438E+03  4.03000E+03  9.99900E-01    360   1     1     11  1.82500E+02
  1    378  7.98676E+03  4.02998E+03  1.00000E+00  9.11945E+03  3.45313E+03  4.03000E+03  9.99900E-01    360   1     1     11  1.82500E+02
  1    378  7.98511E+03  4.02998E+03  1.00000E+00  9.04727E+03  3.47188E+03  4.03000E+03  9.99900E-01    360   1     1     11  1.82500E+02
  1    378  7.98346E+03  4.02999E+03  1.00000E+00  8.97557E+03  3.49063E+03  4.03000E+03  9.99900E-01    360   1     1     11  1.82500E+02
  2   2552  4.05000E+03  4.03000E+03  8.70705E-01  1.26130E+04  2.81250E+03  4.03000E+03  9.99900E-01    359   1     1     11  3.65000E+02
  2   2552  4.05000E+03  4.03000E+03  8.55310E-01  1.29950E+04  2.83750E+03  4.03000E+03  9.99900E-01    359   1     1     11  3.65000E+02
  2   2552  4.05000E+03  4.03000E+03  8.38327E-01  1.34324E+04  2.86250E+03  4.03000E+03  9.99900E-01    359   1     1     11  3.65000E+02
  2   2552  4.05000E+03  4.03000E+03  8.19270E-01  1.37335E+04  2.88750E+03  4.03000E+03  9.99900E-01    359   1     1     11  3.65000E+02
  2   2552  4.05000E+03  4.03000E+03  7.98518E-01  1.48570E+04  2.91250E+03  4.03000E+03  9.99900E-01    359   1     1     11  3.65000E+02
  2   2552  4.05000E+03  4.03000E+03  7.75898E-01  1.55793E+04  2.93750E+03  4.03000E+03  9.99900E-01    359   1     1     11  3.65000E+02
  2   2552  4.05000E+03  4.03000E+03  7.50841E-01  1.64248E+04  2.96250E+03  4.03000E+03  9.99900E-01    359   1     1     11  3.65000E+02
  2   2552  4.05000E+03  4.03000E+03  7.23196E-01  1.74965E+04  2.98750E+03  4.03000E+03  9.99900E-01    359   1     1     11  3.65000E+02
  1   1827  4.52361E+03  4.02997E+03  5.08458E-02  1.82500E+04  3.01250E+03  4.03000E+03  9.99900E-01    359   1     1     10  3.65000E+02
  1   1828  4.75868E+03  4.02996E+03  4.01638E-01  1.82500E+04  3.03750E+03  4.03000E+03  9.99900E-01    359   1     1     10  3.65000E+02
  1   1829  5.12547E+03  4.02994E+03  9.23940E-01  1.82500E+04  3.06250E+03  4.03000E+03  9.99900E-01    359   1     1     10  3.65000E+02
  1   1101  5.30699E+03  4.02992E+03  2.68137E-01  1.82500E+04  3.08750E+03  4.03000E+03  9.99900E-01    359   1     1     10  3.65000E+02
  1   1101  5.46538E+03  4.02993E+03  2.76132E-01  1.82500E+04  3.11250E+03  4.03000E+03  9.99900E-01    359   1     1     10  3.65000E+02
  1   1101  5.62199E+03  4.02993E+03  2.83759E-01  1.82500E+04  3.13750E+03  4.03000E+03  9.99900E-01    359   1     1     10  3.65000E+02
  1   1102  5.72203E+03  4.02992E+03  7.52851E-01  1.82500E+04  3.16250E+03  4.03000E+03  9.99900E-01    359   1     1     10  3.65000E+02
  1   1102  5.91018E+03  4.02992E+03  7.62911E-01  1.82500E+04  3.18750E+03  4.03000E+03  9.99900E-01    359   1     1     10  3.65000E+02
  1   1103  6.07230E+03  4.02993E+03  7.86883E-01  1.82500E+04  3.20938E+03  4.03000E+03  9.99900E-01    360   1     1     10  3.65000E+02
  1    374  6.07592E+03  4.02992E+03 -3.80079E-01  1.82500E+04  3.22813E+03  4.03000E+03  9.99900E-01    360   1     1     10  3.65000E+02
  1    378  8.00513E+03  4.02995E+03  1.00000E+00  1.01319E+04  3.24688E+03  4.03000E+03  9.99900E-01    360   1     1     11  3.65000E+02
  1    378  8.00345E+03  4.02995E+03  1.00000E+00  1.00534E+04  3.26563E+03  4.03000E+03  9.99900E-01    360   1     1     11  3.65000E+02
  1    378  8.00177E+03  4.02996E+03  1.00000E+00  9.97562E+03  3.28438E+03  4.03000E+03  9.99900E-01    360   1     1     11  3.65000E+02
  1    378  8.00009E+03  4.02996E+03  1.00000E+00  9.89846E+03  3.30313E+03  4.03000E+03  9.99900E-01    360   1     1     11  3.65000E+02
  1    378  7.99841E+03  4.02996E+03  1.00000E+00  9.82191E+03  3.32188E+03  4.03000E+03  9.99900E-01    360   1     1     11  3.65000E+02
  1    378  7.99674E+03  4.02997E+03  1.00000E+00  9.74596E+03  3.34063E+03  4.03000E+03  9.99900E-01    360   1     1     11  3.65000E+02
  1    378  7.99507E+03  4.02997E+03  1.00000E+00  9.67059E+03  3.35938E+03  4.03000E+03  9.99900E-01    360   1     1     11  3.65000E+02
  1    378  7.99340E+03  4.02997E+03  1.00000E+00  9.59579E+03  3.37813E+03  4.03000E+03  9.99900E-01    360   1     1     11  3.65000E+02
  1    378  7.99174E+03  4.02997E+03  1.00000E+00  9.52154E+03  3.39688E+03  4.03000E+03  9.99900E-01    360   1     1     11  3.65000E+02
  1    378  7.99008E+03  4.02998E+03  1.00000E+00  9.44782E+03  3.41563E+03  4.03000E+03  9.99900E-01    360   1     1     11  3.65000E+02
  1    378  7.98842E+03  4.02998E+03  1.00000E+00  9.37463E+03  3.43438E+03  4.03000E+03  9.99900E-01    360   1     1     11  3.65000E+02
  1    378  7.98676E+03  4.02998E+03  1.00000E+00  9.30195E+03  3.45313E+03  4.03000E+03  9.99900E-01    360   1     1     11  3.65000E+02
  1    378  7.98511E+03  4.02998E+03  1.00000E+00  9.22977E+03  3.47188E+03  4.03000E+03  9.99900E-01    360   1     1     11  3.65000E+02
  1    378  7.98346E+03  4.02999E+03  1.00000E+00  9.15807E+03  3.49063E+03  4.03000E+03  9.99900E-01    360   1     1     11  3.65000E+02
  2   2552  4.05000E+03  4.03000E+03  8.70706E-01  1.27955E+04  2.81250E+03  4.03000E+03  9.99900E-01    359   1     1     11  5.47500E+02
  2   2552  4.05000E+03  4.03000E+03  8.55309E-01  1.31775E+04  2.83750E+03  4.03000E+03  9.99900E-01    359   1     1     11  5.47500E+02
  2   2552  4.05000E+03  4.03000E+03  8.38328E-01  1.36149E+04  2.86250E+03  4.03000E+03  9.99900E-01    359   1     1     11  5.47500E+02
  2   2552  4.05000E+03  4.03000E+03  8.19270E-01  1.39160E+04  2.88750E+03  4.03000E+03  9.99900E-01    359   1     1     11  5.47500E+02
  2   2552  4.05000E+03  4.03000E+03  7.98517E-01  1.50395E+04  2.91250E+03  4.03000E+03  9.99900E-01    359   1     1     11  5.47500E+02
  2   2552  4.05000E+03  4.03000E+03  7.75897E-01  1.57618E+04  2.93750E+03  4.03000E+03  9.99900E-01    359   1     1     11  5.47500E+02
  2   2552  4.05000E+03  4.03000E+03  7.50839E-01  1.66074E+04  2.96250E+03  4.03000E+03  9.99900E-01    359   1     1     11  5.47500E+02
  2   2552  4.05000E+03  4.03000E+03  7.23198E-01  1.76789E+04  2.98750E+03  4.03000E+03  9.99900E-01    359   1     1     11  5.47500E+02
  1   1828  4.56690E+03  4.02996E+03  2.18865E-01  1.82500E+04  3.01250E+03  4.03000E+03  9.99900E-01    359   1     1     10  5.47500E+02
  1   1828  4.78683E+03  4.02995E+03  4.73969E-01  1.82500E+04  3.03750E+03  4.03000E+03  9.99900E-01    359   1     1     10  5.47500E+02
  1   1829  5.13841E+03  4.02993E+03  9.57535E-01  1.82500E+04  3.06250E+03  4.03000E+03  9.99900E-01    359   1     1     10  5.47500E+02
  1   1101  5.30984E+03  4.02992E+03  2.86335E-01  1.82500E+04  3.08750E+03  4.03000E+03  9.99900E-01    359   1     1     10  5.47500E+02
  1   1101  5.46598E+03  4.02993E+03  2.94327E-01  1.82500E+04  3.11250E+03  4.03000E+03  9.99900E-01    359   1     1     10  5.47500E+02
  1   1101  5.62035E+03  4.02993E+03  3.01954E-01  1.82500E+04  3.13750E+03  4.03000E+03  9.99900E-01    359   1     1     10  5.47500E+02
  1   1102  5.71927E+03  4.02992E+03  7.63218E-01  1.82500E+04  3.16250E+03  4.03000E+03  9.99900E-01    359   1     1     10  5.47500E+02
  1   1102  5.90550E+03  4.02992E+03  7.73292E-01  1.82500E+04  3.18750E+03  4.03000E+03  9.99900E-01    359   1     1     10  5.47500E+02
  1   1103  6.06603E+03  4.02993E+03  7.89325E-01  1.82500E+04  3.20938E+03  4.03000E+03  9.99900E-01    360   1     1     10  5.47500E+02
  1    374  6.07596E+03  4.02992E+03 -3.73533E-01  1.82500E+04  3.22813E+03  4.03000E+03  9.99900E-01    360   1     1     10  5.47500E+02
  1    378  8.00513E+03  4.02995E+03  1.00000E+00  1.03144E+04  3.24688E+03  4.03000E+03  9.99900E-01    360   1     1     11  5.47500E+02
  1    378  8.00345E+03  4.02995E+03  1.00000E+00  1.02359E+04  3.26563E+03  4.03000E+03  9.99900E-01    360   1     1     11  5.47500E+02
  1    378  8.00177E+03  4.02996E+03  1.00000E+00  1.01581E+04  3.28438E+03  4.03000E+03  9.99900E-01    360   1     1     11  5.47500E+02
  1    378  8.00009E+03  4.02996E+03  1.00000E+00  1.00810E+04  3.30313E+03  4.03000E+03  9.99900E-01    360   1     1     11  5.47500E+02
  1    378  7.99841E+03  4.02996E+03  1.00000E+00  1.00044E+04  3.32188E+03  4.03000E+03  9.99900E-01    360   1     1     11  5.47500E+02
  1    378  7.99674E+03  4.02996E+03  1.00000E+00  9.92846E+03  3.34063E+03  4.03000E+03  9.99900E-01    360   1     1     11  5.47500E+02
  1    378  7.99507E+03  4.02997E+03  1.00000E+00  9.85309E+03  3.35938E+03  4.03000E+03  9.99900E-01    360   1     1     11  5.47500E+02
  1    378  7.99340E+03  4.02997E+03  1.00000E+00  9.77829E+03  3.37813E+03  4.03000E+03  9.99900E-01    360   1     1     11  5.47500E+02
  1    378  7.99174E+03  4.02997E+03  1.00000E+00  9.70404E+03  3.39688E+03  4.03000E+03  9.99900E-01    360   1     1     11  5.47500E+02
  1    378  7.99008E+03  4.02998E+03  1.00000E+00  9.63032E+03  3.41563E+03  4.03000E+03  9.99900E-01    360   1     1     11  5.47500E+02
  1    378  7.98842E+03  4.02998E+03  1.00000E+00  9.55713E+03  3.43438E+03  4.03000E+03  9.99900E-01    360   1     1     11  5.47500E+02
  1    378  7.98676E+03  4.02998E+03  1.00000E+00  9.48445E+03  3.45313E+03  4.03000E+03  9.99900E-01    360   1     1     11  5.47500E+02
  1    378  7.98511E+03  4.02998E+03  1.00000E+00  9.41226E+03  3.47188E+03  4.03000E+03  9.99900E-01    360   1     1     11  5.47500E+02
  1    378  7.98346E+03  4.02999E+03  1.00000E+00  9.34057E+03  3.49063E+03  4.03000E+03  9.99900E-01    360   1     1     11  5.47500E+02
  2   2552  4.05000E+03  4.03000E+03  8.70706E-01  1.29780E+04  2.81250E+03  4.03000E+03  9.99900E-01    359   1     1     11  7.30000E+02
  2   2552  4.05000E+03  4.03000E+03  8.55309E-01  1.33600E+04  2.83750E+03  4.03000E+03  9.99900E-01    359   1     1     11  7.30000E+02
  2   2552  4.05000E+03  4.03000E+03  8.38327E-01  1.37974E+04  2.86250E+03  4.03000E+03  9.99900E-01    359   1     1     11  7.30000E+02
  2   2552  4.05000E+03  4.03000E+03  8.19271E-01  1.40985E+04  2.88750E+03  4.03000E+03  9.99900E-01    359   1     1     11  7.30000E+02
  2   2552  4.05000E+03  4.03000E+03  7.98517E-01  1.52220E+04  2.91250E+03  4.03000E+03  9.99900E-01    359   1     1     11  7.30000E+02
  2   2552  4.05000E+03  4.03000E+03  7.75898E-01  1.59443E+04  2.93750E+03  4.03000E+03  9.99900E-01    359   1     1     11  7.30000E+02
  2   2552  4.05000E+03  4.03000E+03  7.50840E-01  1.67899E+04  2.96250E+03  4.03000E+03  9.99900E-01    359   1     1     11  7.30000E+02
  2   2552  4.05000E+03  4.03000E+03  7.23198E-01  1.78614E+04  2.98750E+03  4.03000E+03  9.99900E-01    359   1     1     11  7.30000E+02
  1   1828  4.60709E+03  4.02996E+03  2.92804E-01  1.82500E+04  3.01250E+03  4.03000E+03  9.99900E-01    359   1     1     10  7.30000E+02
  1   1828  4.81324E+03  4.02995E+03  5.45704E-01  1.82500E+04  3.03750E+03  4.03000E+03  9.99900E-01    359   1     1     10  7.30000E+02
  1   1829  5.15090E+03  4.02993E+03  9.91222E-01  1.82500E+04  3.06250E+03  4.03000E+03  9.99900E-01    359   1     1     10  7.30000E+02
  1   1101  5.31265E+03  4.02992E+03  3.04535E-01  1.82500E+04  3.08750E+03  4.03000E+03  9.99900E-01    359   1     1     10  7.30000E+02
  1   1101  5.46657E+03  4.02993E+03  3.12527E-01  1.82500E+04  3.11250E+03  4.03000E+03  9.99900E-01    359   1     1     10  7.30000E+02
  1   1101  5.61875E+03  4.02993E+03  3.20154E-01  1.82500E+04  3.13750E+03  4.03000E+03  9.99900E-01    359   1     1     10  7.30000E+02
  1   1102  5.71648E+03  4.02992E+03  7.73598E-01  1.82500E+04  3.16250E+03  4.03000E+03  9.99900E-01    359   1     1     10  7.30000E+02
  1   1102  5.90087E+03  4.02992E+03  7.83691E-01  1.82500E+04  3.18750E+03  4.03000E+03  9.99900E-01    359   1     1     10  7.30000E+02
  1   1102  6.05983E+03  4.02993E+03  7.92016E-01  1.82500E+04  3.20938E+03  4.03000E+03  9.99900E-01    360   1     1     10  7.30000E+02
  1    374  6.07593E+03  4.02992E+03 -3.66992E-01  1.82500E+04  3.22813E+03  4.03000E+03  9.99900E-01    360   1     1     10  7.30000E+02
  1    378  8.00513E+03  4.02995E+03  1.00000E+00  1.04969E+04  3.24688E+03  4.03000E+03  9.99900E-01    360   1     1     11  7.30000E+02
  1    378  8.00345E+03  4.02995E+03  1.00000E+00  1.04184E+04  3.26563E+03  4.03000E+03  9.99900E-01    360   1     1     11  7.30000E+02
  1    378  8.00177E+03  4.02996E+03  1.00000E+00  1.03406E+04  3.28438E+03  4.03000E+03  9.99900E-01    360   1     1     11  7.30000E+02
  1    378  8.00009E+03  4.02996E+03  1.00000E+00  1.02635E+04  3.30313E+03  4.03000E+03  9.99900E-01    360   1     1     11  7.30000E+02
  1    378  7.99841E+03  4.02996E+03  1.00000E+00  1.01869E+04  3.32188E+03  4.03000E+03  9.99900E-01    360   1     1     11  7.30000E+02
  1    378  7.99674E+03  4.02996E+03  1.00000E+00  1.01110E+04  3.34063E+03  4.03000E+03  9.99900E-01    360   1     1     11  7.30000E+02
  1    378  7.99507E+03  4.02997E+03  1.00000E+00  1.00356E+04  3.35938E+03  4.03000E+03  9.99900E-01    360   1     1     11  7.30000E+02
  1    378  7.99340E+03  4.02997E+03  1.00000E+00  9.96079E+03  3.37813E+03  4.03000E+03  9.99900E-01    360   1     1     11  7.30000E+02
  1    378  7.99174E+03  4.02997E+03  1.00000E+00  9.88654E+03  3.39688E+03  4.03000E+03  9.99900E-01    360   1     1     11  7.30000E+02
  1    378  7.99008E+03  4.02998E+03  1.00000E+00  9.81282E+03  3.41563E+03  4.03000E+03  9.99900E-01    360   1     1     11  7.30000E+02
  1    378  7.98842E+03  4.02998E+03  1.00000E+00  9.73963E+03  3.43438E+03  4.03000E+03  9.99900E-01    360   1     1     11  7.30000E+02
  1    378  7.98676E+03  4.02998E+03  1.00000E+00  9.66695E+03  3.45313E+03  4.03000E+03  9.99900E-01    360   1     1     11  7.30000E+02
  1    378  7.98511E+03  4.02998E+03  1.00000E+00  9.59477E+03  3.47188E+03  4.03000E+03  9.99900E-01    360   1     1     11  7.30000E+02
  1    378  7.98346E+03  4.02999E+03  1.00000E+00  9.52307E+03  3.49063E+03  4.03000E+03  9.99900E-01    360   1     1     11  7.30000E+02
  2   2552  4.05000E+03  4.03000E+03  8.70706E-01  1.31605E+04  2.81250E+03  4.03000E+03  9.99900E-01    359   1     1     11  9.12500E+02
  2   2552  4.05000E+03  4.03000E+03  8.55309E-01  1.35425E+04  2.83750E+03  4.03000E+03  9.99900E-01    359   1     1     11  9.12500E+02
  2   2552  4.05000E+03  4.03000E+03  8.38328E-01  1.39799E+04  2.86250E+03  4.03000E+03  9.99900E-01    359   1     1     11  9.12500E+02
  2   2552  4.05000E+03  4.03000E+03  8.19270E-01  1.42810E+04  2.88750E+03  4.03000E+03  9.99900E-01    359   1     1     11  9.12500E+02
  2   2552  4.05000E+03  4.03000E+03  7.98517E-01  1.54045E+04  2.91250E+03  4.03000E+03  9.99900E-01    359   1     1     11  9.12500E+02
  2   2552  4.05000E+03  4.03000E+03  7.75899E-01  1.61267E+04  2.93750E+03  4.03000E+03  9.99900E-01    359   1     1     11  9.12500E+02
  2   2552  4.05000E+03  4.03000E+03  7.50840E-01  1.69724E+04  2.96250E+03  4.03000E+03  9.99900E-01    359   1     1     11  9.12500E+02
  2   2552  4.05000E+03  4.03000E+03  7.23196E-01  1.80440E+04  2.98750E+03  4.03000E+03  9.99900E-01    359   1     1     11  9.12500E+02
  1   1828  4.64476E+03  4.02996E+03  3.66097E-01  1.82500E+04  3.01250E+03  4.03000E+03  9.99900E-01    359   1     1     10  9.12500E+02
  1   1828  4.83798E+03  4.02995E+03  6.16796E-01  1.82500E+04  3.03750E+03  4.03000E+03  9.99900E-01    359   1     1     10  9.12500E+02
  1   1100  5.15802E+03  4.02993E+03  2.48859E-02  1.82500E+04  3.06250E+03  4.03000E+03  9.99900E-01    359   1     1     10  9.12500E+02
  1   1101  5.31543E+03  4.02992E+03  3.22736E-01  1.82500E+04  3.08750E+03  4.03000E+03  9.99900E-01    359   1     1     10  9.12500E+02
  1   1101  5.46715E+03  4.02992E+03  3.30728E-01  1.82500E+04  3.11250E+03  4.03000E+03  9.99900E-01    359   1     1     10  9.12500E+02
  1   1101  5.61717E+03  4.02993E+03  3.38360E-01  1.82500E+04  3.13750E+03  4.03000E+03  9.99900E-01    359   1     1     10  9.12500E+02
  1   1102  5.71375E+03  4.02992E+03  7.83998E-01  1.82500E+04  3.16250E+03  4.03000E+03  9.99900E-01    359   1     1     10  9.12500E+02
  1   1102  5.89631E+03  4.02992E+03  7.94106E-01  1.82500E+04  3.18750E+03  4.03000E+03  9.99900E-01    359   1     1     10  9.12500E+02
  1   1102  6.05366E+03  4.02993E+03  8.02444E-01  1.82500E+04  3.20938E+03  4.03000E+03  9.99900E-01    360   1     1     10  9.12500E+02
  1    374  6.07593E+03  4.02992E+03 -3.60449E-01  1.82500E+04  3.22813E+03  4.03000E+03  9.99900E-01    360   1     1     10  9.12500E+02
  1    378  8.00513E+03  4.02995E+03  1.00000E+00  1.06794E+04  3.24688E+03  4.03000E+03  9.99900E-01    360   1     1     11  9.12500E+02
  1    378  8.00345E+03  4.02995E+03  1.00000E+00  1.06009E+04  3.26563E+03  4.03000E+03  9.99900E-01    360   1     1     11  9.12500E+02
  1    378  8.00177E+03  4.02996E+03  1.00000E+00  1.05231E+04  3.28438E+03  4.03000E+03  9.99900E-01    360   1     1     11  9.12500E+02
  1    378  8.00009E+03  4.02996E+03  1.00000E+00  1.04460E+04  3.30313E+03  4.03000E+03  9.99900E-01    360   1     1     11  9.12500E+02
  1    378  7.99841E+03  4.02996E+03  1.00000E+00  1.03694E+04  3.32188E+03  4.03000E+03  9.99900E-01    360   1     1     11  9.12500E+02
  1    378  7.99674E+03  4.02996E+03  1.00000E+00  1.02935E+04  3.34063E+03  4.03000E+03  9.99900E-01    360   1     1     11  9.12500E+02
  1    378  7.99507E+03  4.02997E+03  1.00000E+00  1.02181E+04  3.35938E+03  4.03000E+03  9.99900E-01    360   1     1     11  9.12500E+02
  1    378  7.99340E+03  4.02997E+03  1.00000E+00  1.01433E+04  3.37813E+03  4.03000E+03  9.99900E-01    360   1     1     11  9.12500E+02
  1    378  7.99174E+03  4.02997E+03  1.00000E+00  1.00690E+04  3.39688E+03  4.03000E+03  9.99900E-01    360   1     1     11  9.12500E+02
  1    378  7.99008E+03  4.02998E+03  1.00000E+00  9.99532E+03  3.41563E+03  4.03000E+03  9.99900E-01    360   1     1     11  9.12500E+02
  1    378  7.98842E+03  4.02998E+03  1.00000E+00  9.92213E+03  3.43438E+03  4.03000E+03  9.99900E-01    360   1     1     11  9.12500E+02
  1    378  7.98676E+03  4.02998E+03  1.00000E+00  9.84945E+03  3.45313E+03  4.03000E+03  9.99900E-01    360   1     1     11  9.12500E+02
  1    378  7.98511E+03  4.02998E+03  1.00000E+00  9.77727E+03  3.47188E+03  4.03000E+03  9.99900E-01    360   1     1     11  9.12500E+02
  1    378  7.98346E+03  4.02999E+03  1.00000E+00  9.70557E+03  3.49063E+03  4.03000E+03  9.99900E-01    360   1     1     11  9.12500E+02
  2   2552  4.05000E+03  4.03000E+03  8.70706E-01  1.33430E+04  2.81250E+03  4.03000E+03  9.99900E-01    359   1     1     11  1.09500E+03
  2   2552  4.05000E+03  4.03000E+03  8.55310E-01  1.37250E+04  2.83750E+03  4.03000E+03  9.99900E-01    359   1     1     11  1.09500E+03
  2   2552  4.05000E+03  4.03000E+03  8.38329E-01  1.41623E+04  2.86250E+03  4.03000E+03  9.99900E-01    359   1     1     11  1.09500E+03
  2   2552  4.05000E+03  4.03000E+03  8.19272E-01  1.44635E+04  2.88750E+03  4.03000E+03  9.99900E-01    359   1     1     11  1.09500E+03
  2   2552  4.05000E+03  4.03000E+03  7.98517E-01  1.55870E+04  2.91250E+03  4.03000E+03  9.99900E-01    359   1     1     11  1.09500E+03
  2   2552  4.05000E+03  4.03000E+03  7.75899E-01  1.63092E+04  2.93750E+03  4.03000E+03  9.99900E-01    359   1     1     11  1.09500E+03
  2   2552  4.05000E+03  4.03000E+03  7.50840E-01  1.71549E+04  2.96250E+03  4.03000E+03  9.99900E-01    359   1     1     11  1.09500E+03
  2   2552  4.05000E+03  4.03000E+03  7.23194E-01  1.82266E+04  2.98750E+03  4.03000E+03  9.99900E-01    359   1     1     11  1.09500E+03
  1   1828  4.68008E+03  4.02995E+03  4.38757E-01  1.82500E+04  3.01250E+03  4.03000E+03  9.99900E-01    359   1     1     10  1.09500E+03
  1   1829  4.86117E+03  4.02995E+03  6.85328E-01  1.82500E+04  3.03750E+03  4.03000E+03  9.99900E-01    359   1     1     10  1.09500E+03
  1   1100  5.16330E+03  4.02993E+03  5.83490E-02  1.82500E+04  3.06250E+03  4.03000E+03  9.99900E-01    359   1     1     10  1.09500E+03
  1   1101  5.31816E+03  4.02992E+03  3.40941E-01  1.82500E+04  3.08750E+03  4.03000E+03  9.99900E-01    359   1     1     10  1.09500E+03
  1   1101  5.46773E+03  4.02992E+03  3.48934E-01  1.82500E+04  3.11250E+03  4.03000E+03  9.99900E-01    359   1     1     10  1.09500E+03
  1   1101  5.61562E+03  4.02993E+03  3.56566E-01  1.82500E+04  3.13750E+03  4.03000E+03  9.99900E-01    359   1     1     10  1.09500E+03
  1   1102  5.71104E+03  4.02991E+03  7.94414E-01  1.82500E+04  3.16250E+03  4.03000E+03  9.99900E-01    359   1     1     10  1.09500E+03
  1   1102  5.89178E+03  4.02992E+03  8.04538E-01  1.82500E+04  3.18750E+03  4.03000E+03  9.99900E-01    359   1     1     10  1.09500E+03
  1   1102  6.04757E+03  4.02993E+03  8.12891E-01  1.82500E+04  3.20938E+03  4.03000E+03  9.99900E-01    360   1     1     10  1.09500E+03
  1    374  6.07597E+03  4.02992E+03 -3.53903E-01  1.82500E+04  3.22813E+03  4.03000E+03  9.99900E-01    360   1     1     10  1.09500E+03
  1    378  8.00513E+03  4.02995E+03  1.00000E+00  1.08619E+04  3.24688E+03  4.03000E+03  9.99900E-01    360   1     1     11  1.09500E+03
  1    378  8.00345E+03  4.02995E+03  1.00000E+00  1.07834E+04  3.26563E+03  4.03000E+03  9.99900E-01    360   1     1     11  1.09500E+03
  1    378  8.00177E+03  4.02996E+03  1.00000E+00  1.07056E+04  3.28438E+03  4.03000E+03  9.99900E-01    360   1     1     11  1.09500E+03
  1    378  8.00009E+03  4.02996E+03  1.00000E+00  1.06285E+04  3.30313E+03  4.03000E+03  9.99900E-01    360   1     1     11  1.09500E+03
  1    378  7.99841E+03  4.02996E+03  1.00000E+00  1.05519E+04  3.32188E+03  4.03000E+03  9.99900E-01    360   1     1     11  1.09500E+03