@ [ MODPATH Version 3.00 (V3, Release 2, 6-2000)(COMPACT)(TREF=   0.182865E+06 ) ]
  1    494  3.07076E+03  3.37022E+03  1.00000E+00  2.95358E+03  4.03000E+03  4.01000E+03  5.00000E-01    365   3     5     11  0.00000E+00
  1    224  3.07074E+03  4.68987E+03  1.00000E+00  2.95359E+03  4.03000E+03  4.05000E+03  5.00000E-01    365   3     5     11  0.00000E+00
