@ [ MODPATH Version 3.00 (V3, Release 2, 6-2000)(COMPACT)(TREF=   0.186150E+06 ) ]
  1    541  1.04368E+02  2.43111E+03  1.00000E+00  6.84778E+04  4.01000E+03  4.01286E+03  7.14286E-02   2552   2     8     11  0.00000E+00
  1    541  3.10535E+02  2.56883E+03  1.00000E+00  4.58014E+04  4.01000E+03  4.01286E+03  2.14286E-01   2552   2     8     11  0.00000E+00
  1    542  5.24514E+02  2.67505E+03  1.00000E+00  3.44985E+04  4.01000E+03  4.01286E+03  3.57143E-01   2552   2     8     11  0.00000E+00
  1    515  7.43064E+02  2.80131E+03  1.00000E+00  2.71397E+04  4.01000E+03  4.01286E+03  5.00000E-01   2552   2     8     11  0.00000E+00
  1    516  9.87756E+02  2.95865E+03  1.00000E+00  2.18297E+04  4.01000E+03  4.01286E+03  6.42857E-01   2552   2     8     11  0.00000E+00
  1    517  1.24049E+03  3.16157E+03  1.00000E+00  1.74872E+04  4.01000E+03  4.01286E+03  7.85714E-01   2552   2     8     11  0.00000E+00
  1    490  1.57879E+03  3.41630E+03  1.00000E+00  1.39197E+04  4.01000E+03  4.01286E+03  9.28571E-01   2552   2     8     11  0.00000E+00
  1    514  8.76661E+01  2.89567E+03  1.00000E+00  6.77010E+04  4.01000E+03  4.01857E+03  7.14286E-02   2552   2     8     11  0.00000E+00
  1    514  2.74610E+02  3.00309E+03  1.00000E+00  4.50555E+04  4.01000E+03  4.01857E+03  2.14286E-01   2552   2     8     11  0.00000E+00
  1    515  4.68031E+02  3.07775E+03  1.00000E+00  3.41922E+04  4.01000E+03  4.01857E+03  3.57143E-01   2552   2     8     11  0.00000E+00
  1    515  6.73298E+02  3.16930E+03  1.00000E+00  2.70322E+04  4.01000E+03  4.01857E+03  5.00000E-01   2552   2     8     11  0.00000E+00
  1    489  9.08646E+02  3.27436E+03  1.00000E+00  2.18151E+04  4.01000E+03  4.01857E+03  6.42857E-01   2552   2     8     11  0.00000E+00
  1    489  1.17455E+03  3.42236E+03  1.00000E+00  1.75298E+04  4.01000E+03  4.01857E+03  7.85714E-01   2552   2     8     11  0.00000E+00
  1    463  1.51736E+03  3.61869E+03  1.00000E+00  1.39434E+04  4.01000E+03  4.01857E+03  9.28571E-01   2552   2     8     11  0.00000E+00
  1    487  8.00862E+01  3.47348E+03  1.00000E+00  6.60306E+04  4.01000E+03  4.02429E+03  7.14286E-02   2552   2     8     11  0.00000E+00
  1    487  2.48395E+02  3.49981E+03  1.00000E+00  4.44574E+04  4.01000E+03  4.02429E+03  2.14286E-01   2552   2     8     11  0.00000E+00
  1    461  4.28037E+02  3.53204E+03  1.00000E+00  3.39759E+04  4.01000E+03  4.02429E+03  3.57143E-01   2552   2     8     11  0.00000E+00
  1    461  6.27458E+02  3.58208E+03  1.00000E+00  2.70436E+04  4.01000E+03  4.02429E+03  5.00000E-01   2552   2     8     11  0.00000E+00
  1    462  8.52423E+02  3.64118E+03  1.00000E+00  2.19217E+04  4.01000E+03  4.02429E+03  6.42857E-01   2552   2     8     11  0.00000E+00
  1    435  1.11109E+03  3.71283E+03  1.00000E+00  1.77878E+04  4.01000E+03  4.02429E+03  7.85714E-01   2552   2     8     11  0.00000E+00
  1    436  1.46053E+03  3.83384E+03  1.00000E+00  1.41070E+04  4.01000E+03  4.02429E+03  9.28571E-01   2552   2     8     11  0.00000E+00
  1    352  7.93671E+01  4.03037E+03  1.00000E+00  6.52009E+04  4.01000E+03  4.03000E+03  7.14286E-02   2552   2     8     11  0.00000E+00
  1    352  2.44973E+02  4.03030E+03  1.00000E+00  4.39223E+04  4.01000E+03  4.03000E+03  2.14286E-01   2552   2     8     11  0.00000E+00
  1    353  4.16095E+02  4.03027E+03  1.00000E+00  3.38224E+04  4.01000E+03  4.03000E+03  3.57143E-01   2552   2     8     11  0.00000E+00
  1    353  6.06699E+02  4.03025E+03  1.00000E+00  2.70979E+04  4.01000E+03  4.03000E+03  5.00000E-01   2552   2     8     11  0.00000E+00
  1    354  8.24337E+02  4.03024E+03  1.00000E+00  2.20889E+04  4.01000E+03  4.03000E+03  6.42857E-01   2552   2     8     11  0.00000E+00
  1    354  1.08252E+03  4.03023E+03  1.00000E+00  1.79762E+04  4.01000E+03  4.03000E+03  7.85714E-01   2552   2     8     11  0.00000E+00
  1    355  1.44335E+03  4.03022E+03  1.00000E+00  1.41639E+04  4.01000E+03  4.03000E+03  9.28571E-01   2552   2     8     11  0.00000E+00
  1    217  8.01112E+01  4.58735E+03  1.00000E+00  6.60290E+04  4.01000E+03  4.03571E+03  7.14286E-02   2552   2     8     11  0.00000E+00
  1    217  2.48443E+02  4.56082E+03  1.00000E+00  4.44564E+04  4.01000E+03  4.03571E+03  2.14286E-01   2552   2     8     11  0.00000E+00
  1    245  4.28071E+02  4.52851E+03  1.00000E+00  3.39751E+04  4.01000E+03  4.03571E+03  3.57143E-01   2552   2     8     11  0.00000E+00
  1    245  6.27487E+02  4.47842E+03  1.00000E+00  2.70432E+04  4.01000E+03  4.03571E+03  5.00000E-01   2552   2     8     11  0.00000E+00
  1    246  8.52454E+02  4.41927E+03  1.00000E+00  2.19214E+04  4.01000E+03  4.03571E+03  6.42857E-01   2552   2     8     11  0.00000E+00
  1    273  1.11111E+03  4.34760E+03  1.00000E+00  1.77877E+04  4.01000E+03  4.03571E+03  7.85714E-01   2552   2     8     11  0.00000E+00
  1    274  1.46054E+03  4.22658E+03  1.00000E+00  1.41070E+04  4.01000E+03  4.03571E+03  9.28571E-01   2552   2     8     11  0.00000E+00
  1    190  8.76991E+01  5.16510E+03  1.00000E+00  6.76976E+04  4.01000E+03  4.04143E+03  7.14286E-02   2552   2     8     11  0.00000E+00
  1    190  2.74678E+02  5.05749E+03  1.00000E+00  4.50536E+04  4.01000E+03  4.04143E+03  2.14286E-01   2552   2     8     11  0.00000E+00
  1    191  4.68097E+02  4.98272E+03  1.00000E+00  3.41911E+04  4.01000E+03  4.04143E+03  3.57143E-01   2552   2     8     11  0.00000E+00
  1    191  6.73348E+02  4.89113E+03  1.00000E+00  2.70318E+04  4.01000E+03  4.04143E+03  5.00000E-01   2552   2     8     11  0.00000E+00
  1    219  9.08685E+02  4.78604E+03  1.00000E+00  2.18147E+04  4.01000E+03  4.04143E+03  6.42857E-01   2552   2     8     11  0.00000E+00
  1    219  1.17457E+03  4.63801E+03  1.00000E+00  1.75297E+04  4.01000E+03  4.04143E+03  7.85714E-01   2552   2     8     11  0.00000E+00
  1    247  1.51737E+03  4.44168E+03  1.00000E+00  1.39433E+04  4.01000E+03  4.04143E+03  9.28571E-01   2552   2     8     11  0.00000E+00
  1    163  1.04406E+02  5.62948E+03  1.00000E+00  6.84739E+04  4.01000E+03  4.04714E+03  7.14286E-02   2552   2     8     11  0.00000E+00
  1    163  3.10604E+02  5.49161E+03  1.00000E+00  4.57992E+04  4.01000E+03  4.04714E+03  2.14286E-01   2552   2     8     11  0.00000E+00
  1    164  5.24582E+02  5.38533E+03  1.00000E+00  3.44971E+04  4.01000E+03  4.04714E+03  3.57143E-01   2552   2     8     11  0.00000E+00
  1    191  7.43116E+02  5.25903E+03  1.00000E+00  2.71389E+04  4.01000E+03  4.04714E+03  5.00000E-01   2552   2     8     11  0.00000E+00
  1    192  9.87798E+02  5.10168E+03  1.00000E+00  2.18292E+04  4.01000E+03  4.04714E+03  6.42857E-01   2552   2     8     11  0.00000E+00
  1    193  1.24051E+03  4.89874E+03  1.00000E+00  1.74872E+04  4.01000E+03  4.04714E+03  7.85714E-01   2552   2     8     11  0.00000E+00
  1    220  1.57881E+03  4.64402E+03  1.00000E+00  1.39195E+04  4.01000E+03  4.04714E+03  9.28571E-01   2552   2     8     11  0.00000E+00
  1    677  4.14009E+02  6.68095E+02  1.00000E+00  8.10122E+04  4.05000E+03  4.01286E+03  7.14286E-02   2552   2     8     11  0.00000E+00
  1    651  1.07130E+03  9.05246E+02  1.00000E+00  5.34235E+04  4.05000E+03  4.01286E+03  2.14286E-01   2552   2     8     11  0.00000E+00
  1    626  1.66512E+03  1.20722E+03  1.00000E+00  3.87973E+04  4.05000E+03  4.01286E+03  3.57143E-01   2552   2     8     11  0.00000E+00
  1    600  2.08456E+03  1.61929E+03  1.00000E+00  2.94511E+04  4.05000E+03  4.01286E+03  5.00000E-01   2552   2     8     11  0.00000E+00
  1    573  2.34791E+03  2.10097E+03  1.00000E+00  2.28147E+04  4.05000E+03  4.01286E+03  6.42857E-01   2552   2     8     11  0.00000E+00
  1    547  2.49141E+03  2.59334E+03  1.00000E+00  1.77853E+04  4.05000E+03  4.01286E+03  7.85714E-01   2552   2     8     11  0.00000E+00
  1    520  2.48447E+03  3.07591E+03  1.00000E+00  1.34022E+04  4.05000E+03  4.01286E+03  9.28571E-01   2552   2     8     11  0.00000E+00
  1    677  5.28210E+02  6.16461E+02  1.00000E+00  8.41033E+04  4.05000E+03  4.01857E+03  7.14286E-02   2552   2     8     11  0.00000E+00
  1    652  1.32398E+03  9.13485E+02  1.00000E+00  5.58004E+04  4.05000E+03  4.01857E+03  2.14286E-01   2552   2     8     11  0.00000E+00
  1    626  1.96202E+03  1.32350E+03  1.00000E+00  4.12518E+04  4.05000E+03  4.01857E+03  3.57143E-01   2552   2     8     11  0.00000E+00
  1    600  2.35859E+03  1.85701E+03  1.00000E+00  3.15526E+04  4.05000E+03  4.01857E+03  5.00000E-01   2552   2     8     11  0.00000E+00
  1    547  2.60216E+03  2.40227E+03  1.00000E+00  2.39113E+04  4.05000E+03  4.01857E+03  6.42857E-01   2552   2     8     11  0.00000E+00
  1    520  2.69605E+03  2.88270E+03  1.00000E+00  1.71947E+04  4.05000E+03  4.01857E+03  7.85714E-01   2552   2     8     11  0.00000E+00
  1    493  2.65832E+03  3.29217E+03  1.00000E+00  1.31469E+04  4.05000E+03  4.01857E+03  9.28571E-01   2552   2     8     11  0.00000E+00
  1    677  7.23996E+02  6.05714E+02  1.00000E+00  9.08064E+04  4.05000E+03  4.02429E+03  7.14286E-02   2552   2     8     11  0.00000E+00
  1    653  1.67034E+03  1.00979E+03  1.00000E+00  6.19268E+04  4.05000E+03  4.02429E+03  2.14286E-01   2552   2     8     11  0.00000E+00
  1    600  2.33806E+03  1.63929E+03  1.00000E+00  4.62473E+04  4.05000E+03  4.02429E+03  3.57143E-01   2552   2     8     11  0.00000E+00
  1    574  2.71408E+03  2.37987E+03  1.00000E+00  3.38359E+04  4.05000E+03  4.02429E+03  5.00000E-01   2552   2     8     11  0.00000E+00
  1    521  2.84396E+03  2.94356E+03  1.00000E+00  2.33573E+04  4.05000E+03  4.02429E+03  6.42857E-01   2552   2     8     11  0.00000E+00
  1    494  2.88485E+03  3.37187E+03  1.00000E+00  1.83630E+04  4.05000E+03  4.02429E+03  7.85714E-01   2552   2     8     11  0.00000E+00
  1    467  2.80288E+03  3.66141E+03  1.00000E+00  1.31827E+04  4.05000E+03  4.02429E+03  9.28571E-01   2552   2     8     11  0.00000E+00
  1    359  3.14476E+03  4.03035E+03  1.00000E+00  1.47639E+05  4.05000E+03  4.03000E+03  7.14286E-02   2552   2     8     11  0.00000E+00
  1    359  3.14412E+03  4.03022E+03  1.00000E+00  8.64585E+04  4.05000E+03  4.03000E+03  2.14286E-01   2552   2     8     11  0.00000E+00
  1    359  3.13968E+03  4.03018E+03  1.00000E+00  4.73708E+04  4.05000E+03  4.03000E+03  3.57143E-01   2552   2     8     11  0.00000E+00
  1    359  3.12354E+03  4.03019E+03  1.00000E+00  3.43367E+04  4.05000E+03  4.03000E+03  5.00000E-01   2552   2     8     11  0.00000E+00
  1    359  3.08484E+03  4.03015E+03  1.00000E+00  2.57045E+04  4.05000E+03  4.03000E+03  6.42857E-01   2552   2     8     11  0.00000E+00
  1    359  3.01384E+03  4.03016E+03  1.00000E+00  1.78492E+04  4.05000E+03  4.03000E+03  7.85714E-01   2552   2     8     11  0.00000E+00
  1    359  2.85794E+03  4.03017E+03  1.00000E+00  1.30471E+04  4.05000E+03  4.03000E+03  9.28571E-01   2552   2     8     11  0.00000E+00
  1     29  7.24008E+02  7.45417E+03  1.00000E+00  9.07995E+04  4.05000E+03  4.03571E+03  7.14286E-02   2552   2     8     11  0.00000E+00
  1     59  1.67028E+03  7.05008E+03  1.00000E+00  6.19232E+04  4.05000E+03  4.03571E+03  2.14286E-01   2552   2     8     11  0.00000E+00
  1    114  2.33792E+03  6.42065E+03  1.00000E+00  4.62459E+04  4.05000E+03  4.03571E+03  3.57143E-01   2552   2     8     11  0.00000E+00
  1    142  2.71392E+03  5.68017E+03  1.00000E+00  3.38353E+04  4.05000E+03  4.03571E+03  5.00000E-01   2552   2     8     11  0.00000E+00
  1    197  2.84383E+03  5.11658E+03  1.00000E+00  2.33576E+04  4.05000E+03  4.03571E+03  6.42857E-01   2552   2     8     11  0.00000E+00
  1    224  2.88476E+03  4.68832E+03  1.00000E+00  1.83631E+04  4.05000E+03  4.03571E+03  7.85714E-01   2552   2     8     11  0.00000E+00
  1    251  2.80281E+03  4.39885E+03  1.00000E+00  1.31828E+04  4.05000E+03  4.03571E+03  9.28571E-01   2552   2     8     11  0.00000E+00
  1     29  5.28236E+02  7.44343E+03  1.00000E+00  8.40963E+04  4.05000E+03  4.04143E+03  7.14286E-02   2552   2     8     11  0.00000E+00
  1     58  1.32396E+03  7.14639E+03  1.00000E+00  5.57968E+04  4.05000E+03  4.04143E+03  2.14286E-01   2552   2     8     11  0.00000E+00
  1     86  1.96193E+03  6.73640E+03  1.00000E+00  4.12501E+04  4.05000E+03  4.04143E+03  3.57143E-01   2552   2     8     11  0.00000E+00
  1    114  2.35845E+03  6.20297E+03  1.00000E+00  3.15520E+04  4.05000E+03  4.04143E+03  5.00000E-01   2552   2     8     11  0.00000E+00
  1    169  2.60203E+03  5.65778E+03  1.00000E+00  2.39111E+04  4.05000E+03  4.04143E+03  6.42857E-01   2552   2     8     11  0.00000E+00
  1    196  2.69594E+03  5.17742E+03  1.00000E+00  1.71947E+04  4.05000E+03  4.04143E+03  7.85714E-01   2552   2     8     11  0.00000E+00
  1    223  2.65826E+03  4.76800E+03  1.00000E+00  1.31469E+04  4.05000E+03  4.04143E+03  9.28571E-01   2552   2     8     11  0.00000E+00
  1     29  4.14044E+02  7.39181E+03  1.00000E+00  8.10051E+04  4.05000E+03  4.04714E+03  7.14286E-02   2552   2     8     11  0.00000E+00
  1     57  1.07130E+03  7.15464E+03  1.00000E+00  5.34199E+04  4.05000E+03  4.04714E+03  2.14286E-01   2552   2     8     11  0.00000E+00
  1     86  1.66508E+03  6.85267E+03  1.00000E+00  3.87954E+04  4.05000E+03  4.04714E+03  3.57143E-01   2552   2     8     11  0.00000E+00
  1    114  2.08447E+03  6.44064E+03  1.00000E+00  2.94503E+04  4.05000E+03  4.04714E+03  5.00000E-01   2552   2     8     11  0.00000E+00
  1    141  2.34779E+03  5.95904E+03  1.00000E+00  2.28145E+04  4.05000E+03  4.04714E+03  6.42857E-01   2552   2     8     11  0.00000E+00
  1    169  2.49131E+03  5.46673E+03  1.00000E+00  1.77853E+04  4.05000E+03  4.04714E+03  7.85714E-01   2552   2     8     11  0.00000E+00
  1    196  2.48441E+03  4.98425E+03  1.00000E+00  1.34021E+04  4.05000E+03  4.04714E+03  9.28571E-01   2552   2     8     11  0.00000E+00
  1    568  1.28912E+02  2.00483E+03  1.00000E+00  6.95854E+04  4.01286E+03  4.01000E+03  7.14286E-02   2552   2     8     11  0.00000E+00
  1    568  3.60750E+02  2.20428E+03  1.00000E+00  4.63470E+04  4.01286E+03  4.01000E+03  2.14286E-01   2552   2     8     11  0.00000E+00
  1    569  5.98586E+02  2.32979E+03  1.00000E+00  3.47101E+04  4.01286E+03  4.01000E+03  3.57143E-01   2552   2     8     11  0.00000E+00
  1    543  8.39039E+02  2.48111E+03  1.00000E+00  2.72539E+04  4.01286E+03  4.01000E+03  5.00000E-01   2552   2     8     11  0.00000E+00
  1    543  1.08434E+03  2.66626E+03  1.00000E+00  2.18403E+04  4.01286E+03  4.01000E+03  6.42857E-01   2552   2     8     11  0.00000E+00
  1    517  1.35125E+03  2.88080E+03  1.00000E+00  1.74543E+04  4.01286E+03  4.01000E+03  7.85714E-01   2552   2     8     11  0.00000E+00
  1    491  1.65205E+03  3.25975E+03  1.00000E+00  1.37549E+04  4.01286E+03  4.01000E+03  9.28571E-01   2552   2     8     11  0.00000E+00
  1    595  1.63446E+02  1.69474E+03  1.00000E+00  6.96390E+04  4.01857E+03  4.01000E+03  7.14286E-02   2552   2     8     11  0.00000E+00
  1    596  4.33384E+02  1.89731E+03  1.00000E+00  4.62301E+04  4.01857E+03  4.01000E+03  2.14286E-01   2552   2     8     11  0.00000E+00
  1    569  6.94398E+02  2.01855E+03  1.00000E+00  3.49032E+04  4.01857E+03  4.01000E+03  3.57143E-01   2552   2     8     11  0.00000E+00
  1    570  9.50532E+02  2.18809E+03  1.00000E+00  2.74846E+04  4.01857E+03  4.01000E+03  5.00000E-01   2552   2     8     11  0.00000E+00
  1    543  1.18997E+03  2.41106E+03  1.00000E+00  2.19902E+04  4.01857E+03  4.01000E+03  6.42857E-01   2552   2     8     11  0.00000E+00
  1    544  1.45106E+03  2.67629E+03  1.00000E+00  1.76067E+04  4.01857E+03  4.01000E+03  7.85714E-01   2552   2     8     11  0.00000E+00
  1    518  1.71919E+03  3.09065E+03  1.00000E+00  1.39953E+04  4.01857E+03  4.01000E+03  9.28571E-01   2552   2     8     11  0.00000E+00
  1    622  2.02921E+02  1.42721E+03  1.00000E+00  7.00151E+04  4.02429E+03  4.01000E+03  7.14286E-02   2552   2     8     11  0.00000E+00
  1    596  5.13247E+02  1.61965E+03  1.00000E+00  4.66664E+04  4.02429E+03  4.01000E+03  2.14286E-01   2552   2     8     11  0.00000E+00
  1    597  8.09346E+02  1.75458E+03  1.00000E+00  3.52567E+04  4.02429E+03  4.01000E+03  3.57143E-01   2552   2     8     11  0.00000E+00
  1    597  1.07220E+03  1.93571E+03  1.00000E+00  2.77770E+04  4.02429E+03  4.01000E+03  5.00000E-01   2552   2     8     11  0.00000E+00
  1    571  1.32468E+03  2.17247E+03  1.00000E+00  2.23321E+04  4.02429E+03  4.01000E+03  6.42857E-01   2552   2     8     11  0.00000E+00
  1    544  1.57290E+03  2.47128E+03  1.00000E+00  1.78074E+04  4.02429E+03  4.01000E+03  7.85714E-01   2552   2     8     11  0.00000E+00
  1    518  1.83179E+03  2.92759E+03  1.00000E+00  1.39767E+04  4.02429E+03  4.01000E+03  9.28571E-01   2552   2     8     11  0.00000E+00
  1    622  2.40998E+02  1.22577E+03  1.00000E+00  7.05577E+04  4.03000E+03  4.01000E+03  7.14286E-02   2552   2     8     11  0.00000E+00
  1    623  6.15972E+02  1.39623E+03  1.00000E+00  4.68871E+04  4.03000E+03  4.01000E+03  2.14286E-01   2552   2     8     11  0.00000E+00
  1    624  9.39853E+02  1.53278E+03  1.00000E+00  3.55781E+04  4.03000E+03  4.01000E+03  3.57143E-01   2552   2     8     11  0.00000E+00
  1    598  1.22786E+03  1.72957E+03  1.00000E+00  2.81292E+04  4.03000E+03  4.01000E+03  5.00000E-01   2552   2     8     11  0.00000E+00
  1    598  1.48057E+03  1.99133E+03  1.00000E+00  2.25059E+04  4.03000E+03  4.01000E+03  6.42857E-01   2552   2     8     11  0.00000E+00
  1    572  1.71105E+03  2.32769E+03  1.00000E+00  1.79530E+04  4.03000E+03  4.01000E+03  7.85714E-01   2552   2     8     11  0.00000E+00
  1    518  1.93869E+03  2.83888E+03  1.00000E+00  1.39301E+04  4.03000E+03  4.01000E+03  9.28571E-01   2552   2     8     11  0.00000E+00
  1    649  2.68941E+02  1.05058E+03  1.00000E+00  7.28303E+04  4.03571E+03  4.01000E+03  7.14286E-02   2552   2     8     11  0.00000E+00
  1    623  6.89594E+02  1.20721E+03  1.00000E+00  4.85367E+04  4.03571E+03  4.01000E+03  2.14286E-01   2552   2     8     11  0.00000E+00
  1    624  1.09113E+03  1.36319E+03  1.00000E+00  3.62161E+04  4.03571E+03  4.01000E+03  3.57143E-01   2552   2     8     11  0.00000E+00
  1    625  1.41202E+03  1.59381E+03  1.00000E+00  2.82493E+04  4.03571E+03  4.01000E+03  5.00000E-01   2552   2     8     11  0.00000E+00
  1    599  1.67227E+03  1.89638E+03  1.00000E+00  2.25250E+04  4.03571E+03  4.01000E+03  6.42857E-01   2552   2     8     11  0.00000E+00
  1    572  1.89067E+03  2.27478E+03  1.00000E+00  1.78499E+04  4.03571E+03  4.01000E+03  7.85714E-01   2552   2     8     11  0.00000E+00
  1    519  2.06050E+03  2.81119E+03  1.00000E+00  1.37707E+04  4.03571E+03  4.01000E+03  9.28571E-01   2552   2     8     11  0.00000E+00
  1    649  2.93349E+02  8.80292E+02  1.00000E+00  7.64233E+04  4.04143E+03  4.01000E+03  7.14286E-02   2552   2     8     11  0.00000E+00
  1    650  7.93453E+02  1.06676E+03  1.00000E+00  5.00437E+04  4.04143E+03  4.01000E+03  2.14286E-01   2552   2     8     11  0.00000E+00
  1    625  1.25266E+03  1.25136E+03  1.00000E+00  3.69486E+04  4.04143E+03  4.01000E+03  3.57143E-01   2552   2     8     11  0.00000E+00
  1    626  1.61645E+03  1.52644E+03  1.00000E+00  2.84360E+04  4.04143E+03  4.01000E+03  5.00000E-01   2552   2     8     11  0.00000E+00
  1    599  1.88818E+03  1.87917E+03  1.00000E+00  2.24479E+04  4.04143E+03  4.01000E+03  6.42857E-01   2552   2     8     11  0.00000E+00
  1    573  2.10173E+03  2.31046E+03  1.00000E+00  1.73586E+04  4.04143E+03  4.01000E+03  7.85714E-01   2552   2     8     11  0.00000E+00
  1    519  2.21160E+03  2.85375E+03  1.00000E+00  1.35597E+04  4.04143E+03  4.01000E+03  9.28571E-01   2552   2     8     11  0.00000E+00
  1    676  3.39505E+02  7.62341E+02  1.00000E+00  7.84636E+04  4.04714E+03  4.01000E+03  7.14286E-02   2552   2     8     11  0.00000E+00
  1    651  9.09216E+02  9.60548E+02  1.00000E+00  5.17211E+04  4.04714E+03  4.01000E+03  2.14286E-01   2552   2     8     11  0.00000E+00
  1    652  1.43627E+03  1.19078E+03  1.00000E+00  3.78277E+04  4.04714E+03  4.01000E+03  3.57143E-01   2552   2     8     11  0.00000E+00
  1    626  1.83851E+03  1.52540E+03  1.00000E+00  2.87415E+04  4.04714E+03  4.01000E+03  5.00000E-01   2552   2     8     11  0.00000E+00
  1    600  2.11697E+03  1.93368E+03  1.00000E+00  2.23464E+04  4.04714E+03  4.01000E+03  6.42857E-01   2552   2     8     11  0.00000E+00
  1    573  2.29318E+03  2.39035E+03  1.00000E+00  1.73321E+04  4.04714E+03  4.01000E+03  7.85714E-01   2552   2     8     11  0.00000E+00
  1    519  2.35050E+03  2.93622E+03  1.00000E+00  1.35117E+04  4.04714E+03  4.01000E+03  9.28571E-01   2552   2     8     11  0.00000E+00
  1    136  1.28957E+02  6.05556E+03  1.00000E+00  6.95809E+04  4.01286E+03  4.05000E+03  7.14286E-02   2552   2     8     11  0.00000E+00
  1    136  3.60828E+02  5.85607E+03  1.00000E+00  4.63443E+04  4.01286E+03  4.05000E+03  2.14286E-01   2552   2     8     11  0.00000E+00
  1    137  5.98661E+02  5.73050E+03  1.00000E+00  3.47085E+04  4.01286E+03  4.05000E+03  3.57143E-01   2552   2     8     11  0.00000E+00
  1    165  8.39097E+02  5.57916E+03  1.00000E+00  2.72530E+04  4.01286E+03  4.05000E+03  5.00000E-01   2552   2     8     11  0.00000E+00
  1    165  1.08438E+03  5.39401E+03  1.00000E+00  2.18397E+04  4.01286E+03  4.05000E+03  6.42857E-01   2552   2     8     11  0.00000E+00
  1    193  1.35128E+03  5.17945E+03  1.00000E+00  1.74540E+04  4.01286E+03  4.05000E+03  7.85714E-01   2552   2     8     11  0.00000E+00
  1    221  1.65207E+03  4.80054E+03  1.00000E+00  1.37548E+04  4.01286E+03  4.05000E+03  9.28571E-01   2552   2     8     11  0.00000E+00
  1    109  1.63498E+02  6.36552E+03  1.00000E+00  6.96338E+04  4.01857E+03  4.05000E+03  7.14286E-02   2552   2     8     11  0.00000E+00
  1    110  4.33461E+02  6.16289E+03  1.00000E+00  4.62271E+04  4.01857E+03  4.05000E+03  2.14286E-01   2552   2     8     11  0.00000E+00
  1    137  6.94457E+02  6.04162E+03  1.00000E+00  3.49014E+04  4.01857E+03  4.05000E+03  3.57143E-01   2552   2     8     11  0.00000E+00
  1    138  9.50579E+02  5.87210E+03  1.00000E+00  2.74835E+04  4.01857E+03  4.05000E+03  5.00000E-01   2552   2     8     11  0.00000E+00
  1    165  1.19001E+03  5.64913E+03  1.00000E+00  2.19896E+04  4.01857E+03  4.05000E+03  6.42857E-01   2552   2     8     11  0.00000E+00
  1    166  1.45107E+03  5.38394E+03  1.00000E+00  1.76064E+04  4.01857E+03  4.05000E+03  7.85714E-01   2552   2     8     11  0.00000E+00
  1    194  1.71920E+03  4.96960E+03  1.00000E+00  1.39951E+04  4.01857E+03  4.05000E+03  9.28571E-01   2552   2     8     11  0.00000E+00
  1     82  2.02971E+02  6.63292E+03  1.00000E+00  7.00094E+04  4.02429E+03  4.05000E+03  7.14286E-02   2552   2     8     11  0.00000E+00
  1    110  5.13312E+02  6.44044E+03  1.00000E+00  4.66632E+04  4.02429E+03  4.05000E+03  2.14286E-01   2552   2     8     11  0.00000E+00
  1    111  8.09386E+02  6.30550E+03  1.00000E+00  3.52548E+04  4.02429E+03  4.05000E+03  3.57143E-01   2552   2     8     11  0.00000E+00
  1    111  1.07223E+03  6.12444E+03  1.00000E+00  2.77759E+04  4.02429E+03  4.05000E+03  5.00000E-01   2552   2     8     11  0.00000E+00
  1    139  1.32469E+03  5.88760E+03  1.00000E+00  2.23314E+04  4.02429E+03  4.05000E+03  6.42857E-01   2552   2     8     11  0.00000E+00
  1    166  1.57291E+03  5.58887E+03  1.00000E+00  1.78070E+04  4.02429E+03  4.05000E+03  7.85714E-01   2552   2     8     11  0.00000E+00
  1    194  1.83180E+03  5.13262E+03  1.00000E+00  1.39765E+04  4.02429E+03  4.05000E+03  9.28571E-01   2552   2     8     11  0.00000E+00
  1     82  2.41046E+02  6.83426E+03  1.00000E+00  7.05519E+04  4.03000E+03  4.05000E+03  7.14286E-02   2552   2     8     11  0.00000E+00
  1     83  6.16014E+02  6.66377E+03  1.00000E+00  4.68837E+04  4.03000E+03  4.05000E+03  2.14286E-01   2552   2     8     11  0.00000E+00
  1     84  9.39873E+02  6.52722E+03  1.00000E+00  3.55760E+04  4.03000E+03  4.05000E+03  3.57143E-01   2552   2     8     11  0.00000E+00
  1    112  1.22788E+03  6.33045E+03  1.00000E+00  2.81280E+04  4.03000E+03  4.05000E+03  5.00000E-01   2552   2     8     11  0.00000E+00
  1    112  1.48057E+03  6.06869E+03  1.00000E+00  2.25053E+04  4.03000E+03  4.05000E+03  6.42857E-01   2552   2     8     11  0.00000E+00
  1    140  1.71103E+03  5.73252E+03  1.00000E+00  1.79527E+04  4.03000E+03  4.05000E+03  7.85714E-01   2552   2     8     11  0.00000E+00
  1    194  1.93869E+03  5.22131E+03  1.00000E+00  1.39299E+04  4.03000E+03  4.05000E+03  9.28571E-01   2552   2     8     11  0.00000E+00
  1     55  2.68977E+02  7.00939E+03  1.00000E+00  7.28239E+04  4.03571E+03  4.05000E+03  7.14286E-02   2552   2     8     11  0.00000E+00
  1     83  6.89633E+02  6.85274E+03  1.00000E+00  4.85331E+04  4.03571E+03  4.05000E+03  2.14286E-01   2552   2     8     11  0.00000E+00
  1     84  1.09113E+03  6.69676E+03  1.00000E+00  3.62139E+04  4.03571E+03  4.05000E+03  3.57143E-01   2552   2     8     11  0.00000E+00
  1     85  1.41201E+03  6.46616E+03  1.00000E+00  2.82481E+04  4.03571E+03  4.05000E+03  5.00000E-01   2552   2     8     11  0.00000E+00
  1    113  1.67223E+03  6.16363E+03  1.00000E+00  2.25244E+04  4.03571E+03  4.05000E+03  6.42857E-01   2552   2     8     11  0.00000E+00
  1    140  1.89063E+03  5.78533E+03  1.00000E+00  1.78496E+04  4.03571E+03  4.05000E+03  7.85714E-01   2552   2     8     11  0.00000E+00
  1    195  2.06049E+03  5.24897E+03  1.00000E+00  1.37706E+04  4.03571E+03  4.05000E+03  9.28571E-01   2552   2     8     11  0.00000E+00
  1     55  2.93385E+02  7.17964E+03  1.00000E+00  7.64165E+04  4.04143E+03  4.05000E+03  7.14286E-02   2552   2     8     11  0.00000E+00
  1     56  7.93473E+02  6.99316E+03  1.00000E+00  5.00399E+04  4.04143E+03  4.05000E+03  2.14286E-01   2552   2     8     11  0.00000E+00
  1     85  1.25265E+03  6.80856E+03  1.00000E+00  3.69465E+04  4.04143E+03  4.05000E+03  3.57143E-01   2552   2     8     11  0.00000E+00
  1     86  1.61642E+03  6.53350E+03  1.00000E+00  2.84348E+04  4.04143E+03  4.05000E+03  5.00000E-01   2552   2     8     11  0.00000E+00
  1    113  1.88813E+03  6.18082E+03  1.00000E+00  2.24473E+04  4.04143E+03  4.05000E+03  6.42857E-01   2552   2     8     11  0.00000E+00
  1    141  2.10167E+03  5.74960E+03  1.00000E+00  1.73584E+04  4.04143E+03  4.05000E+03  7.85714E-01   2552   2     8     11  0.00000E+00
  1    195  2.21158E+03  5.20640E+03  1.00000E+00  1.35596E+04  4.04143E+03  4.05000E+03  9.28571E-01   2552   2     8     11  0.00000E+00
  1     28  3.39536E+02  7.29757E+03  1.00000E+00  7.84566E+04  4.04714E+03  4.05000E+03  7.14286E-02   2552   2     8     11  0.00000E+00
  1     57  9.09225E+02  7.09935E+03  1.00000E+00  5.17174E+04  4.04714E+03  4.05000E+03  2.14286E-01   2552   2     8     11  0.00000E+00
  1     58  1.43623E+03  6.86912E+03  1.00000E+00  3.78256E+04  4.04714E+03  4.05000E+03  3.57143E-01   2552   2     8     11  0.00000E+00
  1     86  1.83845E+03  6.53453E+03  1.00000E+00  2.87405E+04  4.04714E+03  4.05000E+03  5.00000E-01   2552   2     8     11  0.00000E+00
  1    114  2.11687E+03  6.12631E+03  1.00000E+00  2.23460E+04  4.04714E+03  4.05000E+03  6.42857E-01   2552   2     8     11  0.00000E+00
  1    141  2.29311E+03  5.66971E+03  1.00000E+00  1.73320E+04  4.04714E+03  4.05000E+03  7.85714E-01   2552   2     8     11  0.00000E+00
  1    195  2.35046E+03  5.12392E+03  1.00000E+00  1.35116E+04  4.04714E+03  4.05000E+03  9.28571E-01   2552   2     8     11  0.00000E+00
  1    437  1.90821E+03  3.81165E+03  1.00000E+00  1.18127E+04  4.02000E+03  4.02000E+03  9.99900E-01   2552   2     8     11  0.00000E+00
  1    275  1.90822E+03  4.24875E+03  1.00000E+00  1.18127E+04  4.02000E+03  4.04000E+03  9.99900E-01   2552   2     8     11  0.00000E+00
  1    465  2.08265E+03  3.63372E+03  1.00000E+00  1.17761E+04  4.04000E+03  4.02000E+03  9.99900E-01   2552   2     8     11  0.00000E+00
  1    249  2.08266E+03  4.42662E+03  1.00000E+00  1.17760E+04  4.04000E+03  4.04000E+03  9.99900E-01   2552   2     8     11  0.00000E+00
