@ [ MODPATH Version 4.00 (V4, Release 1, 2-2000) (TREF=   0.193450E+06 ) ]
  2   14   14    4  4.04141E+03  4.05000E+03  5.03083E+01  6.16539E-03  1.30637E+05  1.00000E+02  7.76000E+03  9.99900E-01    1    1    1   1    10    101  0.00000E+00
  2   14   14    4  4.04869E+03  4.04060E+03  5.00000E+01  0.00000E+00  1.66190E+05  1.00000E+02  7.96000E+03  9.99900E-01    1    1    1   1    10    101  0.00000E+00
  2   14   14    4  4.04447E+03  4.05000E+03  5.18447E+01  3.68947E-02  1.03546E+05  3.00000E+02  7.76000E+03  9.99900E-01    1    1    1   1    10    101  0.00000E+00
  2   14   14    4  4.05000E+03  4.04013E+03  5.04619E+01  9.23843E-03  1.51213E+05  3.00000E+02  7.96000E+03  9.99900E-01    1    1    1   1    10    101  0.00000E+00
  2   14   14    4  4.04654E+03  4.05000E+03  5.32430E+01  6.48592E-02  9.15938E+04  5.00000E+02  7.76000E+03  9.99900E-01    2    1    1   1    10    101  0.00000E+00
  2   14   14    4  4.05000E+03  4.03748E+03  5.08853E+01  1.77052E-02  1.51455E+05  5.00000E+02  7.96000E+03  9.99900E-01    2    1    1   1    10    101  0.00000E+00
  2   14   14    4  4.04864E+03  4.05000E+03  5.48419E+01  9.68388E-02  8.38488E+04  7.00000E+02  7.76000E+03  9.99900E-01    2    1    1   1    10    101  0.00000E+00
  2   14   14    4  4.05000E+03  4.03468E+03  5.11938E+01  2.38754E-02  1.58524E+05  7.00000E+02  7.96000E+03  9.99900E-01    2    1    1   1    10    101  0.00000E+00
  2   14   14    4  4.04991E+03  4.05000E+03  5.63178E+01  1.26357E-01  7.93805E+04  9.00000E+02  7.76000E+03  9.99900E-01    3    1    1   1    10    101  0.00000E+00
  2   14   14    4  4.05000E+03  4.03222E+03  5.15662E+01  3.13245E-02  1.83902E+05  9.00000E+02  7.96000E+03  9.99900E-01    3    1    1   1    10    101  0.00000E+00
  2   14   14    4  4.05000E+03  4.04847E+03  5.72717E+01  1.45435E-01  7.55586E+04  1.10000E+03  7.76000E+03  9.99900E-01    3    1    1   1    10    101  0.00000E+00
  2   14   14    4  4.05000E+03  4.03053E+03  5.23847E+01  4.76945E-02  2.54584E+05  1.10000E+03  7.96000E+03  9.99900E-01    3    1    1   1    10    101  0.00000E+00
  2   14   14    4  4.05000E+03  4.04683E+03  5.80337E+01  1.60675E-01  7.25908E+04  1.30000E+03  7.76000E+03  9.99900E-01    4    1    1   1    10    101  0.00000E+00
  1   27   12    1  8.04796E+03  4.15140E+03  2.81958E+02  1.00000E+00  3.13230E+05  1.30000E+03  7.96000E+03  9.99900E-01    4    1    1   1    10    101  0.00000E+00
  2   14   14    4  4.05000E+03  4.04557E+03  5.86571E+01  1.73141E-01  7.31515E+04  1.50000E+03  7.76000E+03  9.99900E-01    4    1    1   1    10    101  0.00000E+00
  1   27   10    1  8.05123E+03  4.40037E+03  2.81964E+02  1.00000E+00  2.57410E+05  1.50000E+03  7.96000E+03  9.99900E-01    4    1    1   1    10    101  0.00000E+00
  2   14   14    4  4.05000E+03  4.04394E+03  5.92917E+01  1.85833E-01  7.26833E+04  1.70000E+03  7.76000E+03  9.99900E-01    5    1    1   1    10    101  0.00000E+00
  1   27    9    1  8.05285E+03  4.71389E+03  2.81972E+02  1.00000E+00  2.24824E+05  1.70000E+03  7.96000E+03  9.99900E-01    5    1    1   1    10    101  0.00000E+00
  2   14   14    4  4.05000E+03  4.04194E+03  5.98463E+01  1.96926E-01  7.49439E+04  1.90000E+03  7.76000E+03  9.99900E-01    5    1    1   1    10    101  0.00000E+00
  1   27    8    1  8.05380E+03  5.07524E+03  2.81989E+02  1.00000E+00  2.00831E+05  1.90000E+03  7.96000E+03  9.99900E-01    5    1    1   1    10    101  0.00000E+00
  2   14   14    4  4.05000E+03  4.03968E+03  5.99456E+01  1.98912E-01  7.93071E+04  2.10000E+03  7.76000E+03  9.99900E-01    6    1    1   1    10    101  0.00000E+00
  1   27    7    1  8.05433E+03  5.50811E+03  2.82014E+02  1.00000E+00  1.79256E+05  2.10000E+03  7.96000E+03  9.99900E-01    6    1    1   1    10    101  0.00000E+00
  2   14   14    4  4.05000E+03  4.03724E+03  5.99159E+01  1.98318E-01  8.74560E+04  2.30000E+03  7.76000E+03  9.99900E-01    6    1    1   1    10    101  0.00000E+00
  1   27    6    1  8.05421E+03  5.92262E+03  2.82043E+02  1.00000E+00  1.61572E+05  2.30000E+03  7.96000E+03  9.99900E-01    6    1    1   1    10    101  0.00000E+00
  2   14   14    4  4.05000E+03  4.03461E+03  5.91935E+01  1.83870E-01  1.01150E+05  2.50000E+03  7.76000E+03  9.99900E-01    7    1    1   1    10    101  0.00000E+00
  1   27    5    1  8.05358E+03  6.29508E+03  2.82071E+02  1.00000E+00  1.46452E+05  2.50000E+03  7.96000E+03  9.99900E-01    7    1    1   1    10    101  0.00000E+00
  2   14   14    4  4.05000E+03  4.03127E+03  5.94946E+01  1.89892E-01  1.60657E+05  2.70000E+03  7.76000E+03  9.99900E-01    7    1    1   1    10    101  0.00000E+00
  1   27    4    1  8.05251E+03  6.64540E+03  2.82097E+02  1.00000E+00  1.31668E+05  2.70000E+03  7.96000E+03  9.99900E-01    7    1    1   1    10    101  0.00000E+00
  1   27    9    1  8.04293E+03  4.62615E+03  2.81972E+02  1.00000E+00  1.60288E+05  2.90000E+03  7.76000E+03  9.99900E-01    8    1    1   1    10    101  0.00000E+00
  1   27    3    1  8.05098E+03  6.95857E+03  2.82117E+02  1.00000E+00  1.16871E+05  2.90000E+03  7.96000E+03  9.99900E-01    8    1    1   1    10    101  0.00000E+00
  1   27    7    1  8.04545E+03  5.52221E+03  2.82014E+02  1.00000E+00  1.15171E+05  3.10000E+03  7.76000E+03  9.99900E-01    8    1    1   1    10    101  0.00000E+00
  1   27    3    1  8.04874E+03  7.23652E+03  2.82117E+02  1.00000E+00  1.00632E+05  3.10000E+03  7.96000E+03  9.99900E-01    8    1    1   1    10    101  0.00000E+00
  1   27    6    1  8.04431E+03  6.01496E+03  2.82043E+02  1.00000E+00  9.85221E+04  3.27500E+03  7.76000E+03  9.99900E-01    9    1    1   1    10    101  0.00000E+00
  1   27    2    1  8.04597E+03  7.40240E+03  2.82132E+02  1.00000E+00  8.94288E+04  3.27500E+03  7.96000E+03  9.99900E-01    9    1    1   1    10    101  0.00000E+00
  1   27    5    1  8.04222E+03  6.39680E+03  2.82071E+02  1.00000E+00  8.51494E+04  3.42500E+03  7.76000E+03  9.99900E-01    9    1    1   1    10    101  0.00000E+00
  1   27    2    1  8.04302E+03  7.52450E+03  2.82132E+02  1.00000E+00  7.90765E+04  3.42500E+03  7.96000E+03  9.99900E-01    9    1    1   1    10    101  0.00000E+00
  1   27    4    1  8.03978E+03  6.72695E+03  2.82097E+02  1.00000E+00  7.47933E+04  3.55000E+03  7.76000E+03  9.99900E-01   10    1    1   1    10    101  0.00000E+00
  1   27    2    1  8.04009E+03  7.63340E+03  2.82132E+02  1.00000E+00  7.00563E+04  3.55000E+03  7.96000E+03  9.99900E-01   10    1    1   1    10    101  0.00000E+00
  1   27    3    1  8.03716E+03  6.93008E+03  2.82117E+02  1.00000E+00  6.50898E+04  3.65000E+03  7.76000E+03  9.99900E-01   10    1    1   1    10    101  0.00000E+00
  1   27    1    1  8.03719E+03  7.69123E+03  2.82139E+02  1.00000E+00  6.24639E+04  3.65000E+03  7.96000E+03  9.99900E-01   10    1    1   1    10    101  0.00000E+00
  1   27    3    1  8.03422E+03  7.07572E+03  2.82117E+02  1.00000E+00  5.85416E+04  3.73750E+03  7.76000E+03  9.99900E-01   11    1    1   1    10    101  0.00000E+00
  1   27    1    1  8.03420E+03  7.73861E+03  2.82139E+02  1.00000E+00  5.63782E+04  3.73750E+03  7.96000E+03  9.99900E-01   11    1    1   1    10    101  0.00000E+00
  1   27    3    1  8.03148E+03  7.18959E+03  2.82117E+02  1.00000E+00  5.15154E+04  3.81250E+03  7.76000E+03  9.99900E-01   11    1    1   1    10    101  0.00000E+00
  1   27    1    1  8.03129E+03  7.77587E+03  2.82139E+02  1.00000E+00  5.33103E+04  3.81250E+03  7.96000E+03  9.99900E-01   11    1    1   1    10    101  0.00000E+00
  1   27    2    1  8.02895E+03  7.29556E+03  2.82132E+02  1.00000E+00  5.75159E+04  3.87500E+03  7.76000E+03  9.99900E-01   12    1    1   1    10    101  0.00000E+00
  1   27    1    1  8.02853E+03  7.81301E+03  2.82139E+02  1.00000E+00  5.50164E+04  3.87500E+03  7.96000E+03  9.99900E-01   12    1    1   1    10    101  0.00000E+00
  1   27    2    1  8.02644E+03  7.42129E+03  2.82132E+02  1.00000E+00  7.15925E+04  3.92500E+03  7.76000E+03  9.99900E-01   12    1    1   1    10    101  0.00000E+00
  1   27    1    1  8.02593E+03  7.85913E+03  2.82139E+02  1.00000E+00  6.72072E+04  3.92500E+03  7.96000E+03  9.99900E-01   12    1    1   1    10    101  0.00000E+00
  1   27    2    1  8.02404E+03  7.48759E+03  2.82132E+02  1.00000E+00  1.18160E+04  3.96500E+03  7.76000E+03  9.99900E-01   13    1    1   1    10    101  0.00000E+00
  1   27    1    1  8.02348E+03  7.86988E+03  2.82139E+02  1.00000E+00  1.17331E+04  3.96500E+03  7.96000E+03  9.99900E-01   13    1    1   1    10    101  0.00000E+00
  1   27    2    1  8.02218E+03  7.49433E+03  2.82132E+02  1.00000E+00  1.16515E+04  3.99500E+03  7.76000E+03  9.99900E-01   13    1    1   1    10    101  0.00000E+00
  1   27    1    1  8.02162E+03  7.87209E+03  2.82139E+02  1.00000E+00  1.15706E+04  3.99500E+03  7.96000E+03  9.99900E-01   13    1    1   1    10    101  0.00000E+00
  1   27    2    1  8.02061E+03  7.49985E+03  2.82132E+02  1.00000E+00  1.15156E+04  4.02000E+03  7.76000E+03  9.99900E-01   14    1    1   1    10    101  0.00000E+00
  1   27    1    1  8.02005E+03  7.87390E+03  2.82139E+02  1.00000E+00  1.14365E+04  4.02000E+03  7.96000E+03  9.99900E-01   14    1    1   1    10    101  0.00000E+00
  1   27    2    1  8.01934E+03  7.50422E+03  2.82132E+02  1.00000E+00  1.14076E+04  4.04000E+03  7.76000E+03  9.99900E-01   14    1    1   1    10    101  0.00000E+00
  1   27    1    1  8.01878E+03  7.87533E+03  2.82139E+02  1.00000E+00  1.13301E+04  4.04000E+03  7.96000E+03  9.99900E-01   14    1    1   1    10    101  0.00000E+00
  1   27    2    1  8.01774E+03  7.50960E+03  2.82132E+02  1.00000E+00  1.12737E+04  4.06500E+03  7.76000E+03  9.99900E-01   15    1    1   1    10    101  0.00000E+00
  1   27    1    1  8.01718E+03  7.87710E+03  2.82139E+02  1.00000E+00  1.11980E+04  4.06500E+03  7.96000E+03  9.99900E-01   15    1    1   1    10    101  0.00000E+00
  1   27    2    1  8.01580E+03  7.51595E+03  2.82132E+02  1.00000E+00  1.11144E+04  4.09500E+03  7.76000E+03  9.99900E-01   15    1    1   1    10    101  0.00000E+00
  1   27    1    1  8.01524E+03  7.87918E+03  2.82139E+02  1.00000E+00  1.10410E+04  4.09500E+03  7.96000E+03  9.99900E-01   15    1    1   1    10    101  0.00000E+00
  1   27    2    1  8.01318E+03  7.52423E+03  2.82132E+02  1.00000E+00  1.09044E+04  4.13500E+03  7.76000E+03  9.99900E-01   16    1    1   1    10    101  0.00000E+00
  1   27    1    1  8.01262E+03  7.88189E+03  2.82139E+02  1.00000E+00  1.08341E+04  4.13500E+03  7.96000E+03  9.99900E-01   16    1    1   1    10    101  0.00000E+00
  1   27    2    1  8.00984E+03  7.53430E+03  2.82132E+02  1.00000E+00  1.06455E+04  4.18500E+03  7.76000E+03  9.99900E-01   16    1    1   1    10    101  0.00000E+00
  1   27    1    1  8.00929E+03  7.88520E+03  2.82139E+02  1.00000E+00  1.05789E+04  4.18500E+03  7.96000E+03  9.99900E-01   16    1    1   1    10    101  0.00000E+00
  1   27    2    1  8.00557E+03  7.54643E+03  2.82132E+02  1.00000E+00  1.03272E+04  4.24750E+03  7.76000E+03  9.99900E-01   17    1    1   1    10    101  0.00000E+00
  1   27    1    1  8.00504E+03  7.88918E+03  2.82139E+02  1.00000E+00  1.02654E+04  4.24750E+03  7.96000E+03  9.99900E-01   17    1    1   1    10    101  0.00000E+00
  1   27    2    1  8.00032E+03  7.56037E+03  2.82132E+02  1.00000E+00  9.95241E+03  4.32250E+03  7.76000E+03  9.99900E-01   17    1    1   1    10    101  0.00000E+00
  1   27    1    1  7.99981E+03  7.89377E+03  2.82139E+02  1.00000E+00  9.89668E+03  4.32250E+03  7.96000E+03  9.99900E-01   17    1    1   1    10    101  0.00000E+00
  1   27    2    1  7.99399E+03  7.57573E+03  2.82132E+02  1.00000E+00  9.52492E+03  4.41000E+03  7.76000E+03  9.99900E-01   18    1    1   1    10    101  0.00000E+00
  1   27    1    1  7.99353E+03  7.89882E+03  2.82139E+02  1.00000E+00  9.47646E+03  4.41000E+03  7.96000E+03  9.99900E-01   18    1    1   1    10    101  0.00000E+00
  1   27    2    1  7.98652E+03  7.59223E+03  2.82132E+02  1.00000E+00  9.04929E+03  4.51000E+03  7.76000E+03  9.99900E-01   18    1    1   1    10    101  0.00000E+00
  1   27    1    1  7.98611E+03  7.90425E+03  2.82139E+02  1.00000E+00  9.00865E+03  4.51000E+03  7.96000E+03  9.99900E-01   18    1    1   1    10    101  0.00000E+00
  1   27    2    1  7.97679E+03  7.61108E+03  2.82132E+02  1.00000E+00  8.47258E+03  4.63500E+03  7.76000E+03  9.99900E-01   19    1    1   1    10    101  0.00000E+00
  1   27    1    1  7.97648E+03  7.91048E+03  2.82139E+02  1.00000E+00  8.44224E+03  4.63500E+03  7.96000E+03  9.99900E-01   19    1    1   1    10    101  0.00000E+00
  1   27    2    1  7.96459E+03  7.63166E+03  2.82132E+02  1.00000E+00  7.80704E+03  4.78500E+03  7.76000E+03  9.99900E-01   19    1    1   1    10    101  0.00000E+00
  1   27    1    1  7.96441E+03  7.91727E+03  2.82139E+02  1.00000E+00  7.78827E+03  4.78500E+03  7.96000E+03  9.99900E-01   19    1    1   1    10    101  0.00000E+00
  1   27    2    1  7.94964E+03  7.65251E+03  2.82132E+02  1.00000E+00  7.06638E+03  4.96000E+03  7.76000E+03  9.99900E-01   20    1    1   1    10    101  0.00000E+00
  1   27    1    1  7.94962E+03  7.92418E+03  2.82139E+02  1.00000E+00  7.06010E+03  4.96000E+03  7.96000E+03  9.99900E-01   20    1    1   1    10    101  0.00000E+00
  1   27    1    1  7.93185E+03  7.67309E+03  2.82139E+02  1.00000E+00  6.27351E+03  5.16000E+03  7.76000E+03  9.99900E-01   20    1    1   1    10    101  0.00000E+00
  1   27    1    1  7.93185E+03  7.93103E+03  2.82139E+02  1.00000E+00  6.27351E+03  5.16000E+03  7.96000E+03  9.99900E-01   20    1    1   1    10    101  0.00000E+00
  1   27    1    1  7.91319E+03  7.69037E+03  2.82139E+02  1.00000E+00  5.53304E+03  5.36000E+03  7.76000E+03  9.99900E-01   21    1    1   1    10    101  0.00000E+00
  1   27    1    1  7.91319E+03  7.93679E+03  2.82139E+02  1.00000E+00  5.53304E+03  5.36000E+03  7.96000E+03  9.99900E-01   21    1    1   1    10    101  0.00000E+00
  1   27    1    1  7.89372E+03  7.70475E+03  2.82139E+02  1.00000E+00  4.84042E+03  5.56000E+03  7.76000E+03  9.99900E-01   21    1    1   1    10    101  0.00000E+00
  1   27    1    1  7.89372E+03  7.94158E+03  2.82139E+02  1.00000E+00  4.84042E+03  5.56000E+03  7.96000E+03  9.99900E-01   21    1    1   1    10    101  0.00000E+00
  1   27    1    1  7.87351E+03  7.71669E+03  2.82139E+02  1.00000E+00  4.19254E+03  5.76000E+03  7.76000E+03  9.99900E-01   22    1    1   1    10    101  0.00000E+00
  1   27    1    1  7.87351E+03  7.94556E+03  2.82139E+02  1.00000E+00  4.19254E+03  5.76000E+03  7.96000E+03  9.99900E-01   22    1    1   1    10    101  0.00000E+00
  1   27    1    1  7.85267E+03  7.72646E+03  2.82139E+02  1.00000E+00  3.59025E+03  5.96000E+03  7.76000E+03  9.99900E-01   22    1    1   1    10    101  0.00000E+00
  1   27    1    1  7.85267E+03  7.94882E+03  2.82139E+02  1.00000E+00  3.59025E+03  5.96000E+03  7.96000E+03  9.99900E-01   22    1    1   1    10    101  0.00000E+00
  1   27    1    1  7.83125E+03  7.73447E+03  2.82139E+02  1.00000E+00  3.03009E+03  6.16000E+03  7.76000E+03  9.99900E-01   23    1    1   1    10    101  0.00000E+00
  1   27    1    1  7.83125E+03  7.95149E+03  2.82139E+02  1.00000E+00  3.03009E+03  6.16000E+03  7.96000E+03  9.99900E-01   23    1    1   1    10    101  0.00000E+00
  1   27    1    1  7.80937E+03  7.74092E+03  2.82139E+02  1.00000E+00  2.51198E+03  6.36000E+03  7.76000E+03  9.99900E-01   23    1    1   1    10    101  0.00000E+00
  1   27    1    1  7.80937E+03  7.95364E+03  2.82139E+02  1.00000E+00  2.51198E+03  6.36000E+03  7.96000E+03  9.99900E-01   23    1    1   1    10    101  0.00000E+00
  1   27    1    1  7.78707E+03  7.74613E+03  2.82139E+02  1.00000E+00  2.03234E+03  6.56000E+03  7.76000E+03  9.99900E-01   24    1    1   1    10    101  0.00000E+00
  1   27    1    1  7.78707E+03  7.95538E+03  2.82139E+02  1.00000E+00  2.03234E+03  6.56000E+03  7.96000E+03  9.99900E-01   24    1    1   1    10    101  0.00000E+00
  1   27    1    1  7.76445E+03  7.75025E+03  2.82139E+02  1.00000E+00  1.59043E+03  6.76000E+03  7.76000E+03  9.99900E-01   24    1    1   1    10    101  0.00000E+00
  1   27    1    1  7.76445E+03  7.95675E+03  2.82139E+02  1.00000E+00  1.59043E+03  6.76000E+03  7.96000E+03  9.99900E-01   24    1    1   1    10    101  0.00000E+00
  1   27    1    1  7.74156E+03  7.75351E+03  2.82139E+02  1.00000E+00  1.18284E+03  6.96000E+03  7.76000E+03  9.99900E-01   25    1    1   1    10    101  0.00000E+00
  1   27    1    1  7.74156E+03  7.95784E+03  2.82139E+02  1.00000E+00  1.18284E+03  6.96000E+03  7.96000E+03  9.99900E-01   25    1    1   1    10    101  0.00000E+00
  1   27    1    1  7.71845E+03  7.75602E+03  2.82139E+02  1.00000E+00  8.08490E+02  7.16000E+03  7.76000E+03  9.99900E-01   25    1    1   1    10    101  0.00000E+00
  1   27    1    1  7.71845E+03  7.95867E+03  2.82139E+02  1.00000E+00  8.08490E+02  7.16000E+03  7.96000E+03  9.99900E-01   25    1    1   1    10    101  0.00000E+00
  1   27    1    1  7.69518E+03  7.75794E+03  2.82139E+02  1.00000E+00  4.64301E+02  7.36000E+03  7.76000E+03  9.99900E-01   26    1    1   1    10    101  0.00000E+00
  1   27    1    1  7.69518E+03  7.95931E+03  2.82139E+02  1.00000E+00  4.64301E+02  7.36000E+03  7.96000E+03  9.99900E-01   26    1    1   1    10    101  0.00000E+00
  1   27    1    1  7.67178E+03  7.75934E+03  2.82139E+02  1.00000E+00  1.49130E+02  7.56000E+03  7.76000E+03  9.99900E-01   26    1    1   1    10    101  0.00000E+00
  1   27    1    1  7.67178E+03  7.95978E+03  2.82139E+02  1.00000E+00  1.49130E+02  7.56000E+03  7.96000E+03  9.99900E-01   26    1    1   1    10    101  0.00000E+00
  2   14   14    4  4.02318E+03  4.05000E+03  5.09036E+01  1.80719E-02  1.05889E+05  1.00000E+02  7.36000E+03  9.99900E-01    1    2    1   1    10    101  0.00000E+00
  2   14   14    4  4.03114E+03  4.05000E+03  5.06737E+01  1.34735E-02  1.16043E+05  1.00000E+02  7.56000E+03  9.99900E-01    1    2    1   1    10    101  0.00000E+00
  2   14   14    4  4.02901E+03  4.05000E+03  5.34120E+01  6.82406E-02  7.95030E+04  3.00000E+02  7.36000E+03  9.99900E-01    1    2    1   1    10    101  0.00000E+00
  2   14   14    4  4.03611E+03  4.05000E+03  5.25248E+01  5.04964E-02  8.89469E+04  3.00000E+02  7.56000E+03  9.99900E-01    1    2    1   1    10    101  0.00000E+00
  2   14   14    4  4.03158E+03  4.05000E+03  5.60713E+01  1.21426E-01  6.69354E+04  5.00000E+02  7.36000E+03  9.99900E-01    2    2    1   1    10    101  0.00000E+00
  2   14   14    4  4.03799E+03  4.05000E+03  5.49252E+01  9.85039E-02  7.62969E+04  5.00000E+02  7.56000E+03  9.99900E-01    2    2    1   1    10    101  0.00000E+00
  2   14   14    4  4.03327E+03  4.05000E+03  5.88105E+01  1.76210E-01  5.86638E+04  7.00000E+02  7.36000E+03  9.99900E-01    2    2    1   1    10    101  0.00000E+00
  2   14   14    4  4.03977E+03  4.05000E+03  5.67996E+01  1.35992E-01  6.80549E+04  7.00000E+02  7.56000E+03  9.99900E-01    2    2    1   1    10    101  0.00000E+00
  2   14   14    4  4.03459E+03  4.05000E+03  6.15777E+01  2.31555E-01  5.25327E+04  9.00000E+02  7.36000E+03  9.99900E-01    3    2    1   1    10    101  0.00000E+00
  2   14   14    4  4.04107E+03  4.05000E+03  5.90055E+01  1.80110E-01  6.22131E+04  9.00000E+02  7.56000E+03  9.99900E-01    3    2    1   1    10    101  0.00000E+00
  2   14   14    4  4.03551E+03  4.05000E+03  6.41236E+01  2.82473E-01  4.75028E+04  1.10000E+03  7.36000E+03  9.99900E-01    3    2    1   1    10    101  0.00000E+00
  2   14   14    4  4.04234E+03  4.05000E+03  6.07653E+01  2.15306E-01  5.76754E+04  1.10000E+03  7.56000E+03  9.99900E-01    3    2    1   1    10    101  0.00000E+00
  2   14   14    4  4.03725E+03  4.05000E+03  6.66122E+01  3.32243E-01  4.38486E+04  1.30000E+03  7.36000E+03  9.99900E-01    4    2    1   1    10    101  0.00000E+00
  2   14   14    4  4.04370E+03  4.05000E+03  6.24995E+01  2.49990E-01  5.43471E+04  1.30000E+03  7.56000E+03  9.99900E-01    4    2    1   1    10    101  0.00000E+00
  2   14   14    4  4.03901E+03  4.05000E+03  6.87069E+01  3.74139E-01  4.10489E+04  1.50000E+03  7.36000E+03  9.99900E-01    4    2    1   1    10    101  0.00000E+00
  2   14   14    4  4.04480E+03  4.05000E+03  6.40088E+01  2.80176E-01  5.12986E+04  1.50000E+03  7.56000E+03  9.99900E-01    4    2    1   1    10    101  0.00000E+00
  2   14   14    4  4.04087E+03  4.05000E+03  7.05823E+01  4.11645E-01  3.87387E+04  1.70000E+03  7.36000E+03  9.99900E-01    5    2    1   1    10    101  0.00000E+00
  2   14   14    4  4.04665E+03  4.05000E+03  6.53850E+01  3.07700E-01  4.95973E+04  1.70000E+03  7.56000E+03  9.99900E-01    5    2    1   1    10    101  0.00000E+00
  2   14   14    4  4.04292E+03  4.05000E+03  7.20910E+01  4.41819E-01  3.73595E+04  1.90000E+03  7.36000E+03  9.99900E-01    5    2    1   1    10    101  0.00000E+00
  2   14   14    4  4.04861E+03  4.05000E+03  6.64404E+01  3.28809E-01  4.89864E+04  1.90000E+03  7.56000E+03  9.99900E-01    5    2    1   1    10    101  0.00000E+00
  2   14   14    4  4.04511E+03  4.05000E+03  7.33254E+01  4.66507E-01  3.63128E+04  2.10000E+03  7.36000E+03  9.99900E-01    6    2    1   1    10    101  0.00000E+00
  2   14   14    4  4.05000E+03  4.04926E+03  6.73150E+01  3.46301E-01  4.82757E+04  2.10000E+03  7.56000E+03  9.99900E-01    6    2    1   1    10    101  0.00000E+00
  2   14   14    4  4.04749E+03  4.05000E+03  7.41834E+01  4.83667E-01  3.64272E+04  2.30000E+03  7.36000E+03  9.99900E-01    6    2    1   1    10    101  0.00000E+00
  2   14   14    4  4.05000E+03  4.04692E+03  6.75400E+01  3.50799E-01  5.03270E+04  2.30000E+03  7.56000E+03  9.99900E-01    6    2    1   1    10    101  0.00000E+00
  2   14   14    4  4.05000E+03  4.04995E+03  7.45398E+01  4.90797E-01  3.66981E+04  2.50000E+03  7.36000E+03  9.99900E-01    7    2    1   1    10    101  0.00000E+00
  2   14   14    4  4.05000E+03  4.04443E+03  6.75516E+01  3.51031E-01  5.19273E+04  2.50000E+03  7.56000E+03  9.99900E-01    7    2    1   1    10    101  0.00000E+00
  2   14   14    4  4.05000E+03  4.04719E+03  7.44826E+01  4.89652E-01  3.86873E+04  2.70000E+03  7.36000E+03  9.99900E-01    7    2    1   1    10    101  0.00000E+00
  2   14   14    4  4.05000E+03  4.04164E+03  6.70951E+01  3.41901E-01  5.74819E+04  2.70000E+03  7.56000E+03  9.99900E-01    7    2    1   1    10    101  0.00000E+00
  2   14   14    4  4.05000E+03  4.04427E+03  7.39474E+01  4.78948E-01  4.15237E+04  2.90000E+03  7.36000E+03  9.99900E-01    8    2    1   1    10    101  0.00000E+00
  2   14   14    4  4.05000E+03  4.03844E+03  6.61016E+01  3.22031E-01  6.41930E+04  2.90000E+03  7.56000E+03  9.99900E-01    8    2    1   1    10    101  0.00000E+00
  2   14   14    4  4.05000E+03  4.04104E+03  7.24582E+01  4.49164E-01  4.79776E+04  3.10000E+03  7.36000E+03  9.99900E-01    8    2    1   1    10    101  0.00000E+00
  2   14   14    4  4.05000E+03  4.03457E+03  6.41300E+01  2.82600E-01  8.47609E+04  3.10000E+03  7.56000E+03  9.99900E-01    8    2    1   1    10    101  0.00000E+00
  2   14   14    4  4.05000E+03  4.03778E+03  7.05739E+01  4.11478E-01  5.50279E+04  3.27500E+03  7.36000E+03  9.99900E-01    9    2    1   1    10    101  0.00000E+00
  1   27   11    1  8.03717E+03  4.30451E+03  2.81960E+02  1.00000E+00  1.66019E+05  3.27500E+03  7.56000E+03  9.99900E-01    9    2    1   1    10    101  0.00000E+00
  2   14   14    4  4.05000E+03  4.03438E+03  6.78558E+01  3.57116E-01  7.42676E+04  3.42500E+03  7.36000E+03  9.99900E-01    9    2    1   1    10    101  0.00000E+00
  1   27    8    1  8.03882E+03  5.05604E+03  2.81989E+02  1.00000E+00  1.10461E+05  3.42500E+03  7.56000E+03  9.99900E-01    9    2    1   1    10    101  0.00000E+00
  2   14   14    4  4.05000E+03  4.03016E+03  6.59900E+01  3.19800E-01  2.15582E+05  3.55000E+03  7.36000E+03  9.99900E-01   10    2    1   1    10    101  0.00000E+00
  1   27    6    1  8.03856E+03  5.66083E+03  2.82043E+02  1.00000E+00  8.70394E+04  3.55000E+03  7.56000E+03  9.99900E-01   10    2    1   1    10    101  0.00000E+00
  1   27    8    1  8.03478E+03  4.92469E+03  2.81989E+02  1.00000E+00  9.71086E+04  3.65000E+03  7.36000E+03  9.99900E-01   10    2    1   1    10    101  0.00000E+00
  1   27    5    1  8.03675E+03  6.10032E+03  2.82071E+02  1.00000E+00  7.09922E+04  3.65000E+03  7.56000E+03  9.99900E-01   10    2    1   1    10    101  0.00000E+00
  1   27    7    1  8.03369E+03  5.49375E+03  2.82014E+02  1.00000E+00  7.43533E+04  3.73750E+03  7.36000E+03  9.99900E-01   11    2    1   1    10    101  0.00000E+00
  1   27    5    1  8.03410E+03  6.35639E+03  2.82071E+02  1.00000E+00  6.30448E+04  3.73750E+03  7.56000E+03  9.99900E-01   11    2    1   1    10    101  0.00000E+00
  1   27    6    1  8.03187E+03  5.80627E+03  2.82043E+02  1.00000E+00  6.34002E+04  3.81250E+03  7.36000E+03  9.99900E-01   11    2    1   1    10    101  0.00000E+00
  1   27    4    1  8.03171E+03  6.55658E+03  2.82097E+02  1.00000E+00  5.50918E+04  3.81250E+03  7.56000E+03  9.99900E-01   11    2    1   1    10    101  0.00000E+00
  1   27    6    1  8.03002E+03  6.05902E+03  2.82043E+02  1.00000E+00  5.80064E+04  3.87500E+03  7.36000E+03  9.99900E-01   12    2    1   1    10    101  0.00000E+00
  1   27    4    1  8.02916E+03  6.72883E+03  2.82097E+02  1.00000E+00  5.08735E+04  3.87500E+03  7.56000E+03  9.99900E-01   12    2    1   1    10    101  0.00000E+00
  1   27    5    1  8.02781E+03  6.30015E+03  2.82071E+02  1.00000E+00  5.87510E+04  3.92500E+03  7.36000E+03  9.99900E-01   12    2    1   1    10    101  0.00000E+00
  1   27    3    1  8.02700E+03  6.91471E+03  2.82117E+02  1.00000E+00  5.07990E+04  3.92500E+03  7.56000E+03  9.99900E-01   12    2    1   1    10    101  0.00000E+00
  1   27    4    1  8.02613E+03  6.55676E+03  2.82097E+02  1.00000E+00  7.31723E+04  3.96500E+03  7.36000E+03  9.99900E-01   13    2    1   1    10    101  0.00000E+00
  1   27    3    1  8.02469E+03  7.09647E+03  2.82117E+02  1.00000E+00  1.19367E+04  3.96500E+03  7.56000E+03  9.99900E-01   13    2    1   1    10    101  0.00000E+00
  1   27    4    1  8.02433E+03  6.70693E+03  2.82097E+02  1.00000E+00  1.19980E+04  3.99500E+03  7.36000E+03  9.99900E-01   13    2    1   1    10    101  0.00000E+00
  1   27    3    1  8.02283E+03  7.10815E+03  2.82117E+02  1.00000E+00  1.17682E+04  3.99500E+03  7.56000E+03  9.99900E-01   13    2    1   1    10    101  0.00000E+00
  1   27    4    1  8.02278E+03  6.72115E+03  2.82097E+02  1.00000E+00  1.18531E+04  4.02000E+03  7.36000E+03  9.99900E-01   14    2    1   1    10    101  0.00000E+00
  1   27    3    1  8.02127E+03  7.11772E+03  2.82117E+02  1.00000E+00  1.16292E+04  4.02000E+03  7.56000E+03  9.99900E-01   14    2    1   1    10    101  0.00000E+00
  1   27    4    1  8.02153E+03  6.73236E+03  2.82097E+02  1.00000E+00  1.17383E+04  4.04000E+03  7.36000E+03  9.99900E-01   14    2    1   1    10    101  0.00000E+00
  1   27    3    1  8.02000E+03  7.12526E+03  2.82117E+02  1.00000E+00  1.15186E+04  4.04000E+03  7.56000E+03  9.99900E-01   14    2    1   1    10    101  0.00000E+00
  1   27    4    1  8.01995E+03  6.74616E+03  2.82097E+02  1.00000E+00  1.15946E+04  4.06500E+03  7.36000E+03  9.99900E-01   15    2    1   1    10    101  0.00000E+00
  1   27    3    1  8.01840E+03  7.13457E+03  2.82117E+02  1.00000E+00  1.13808E+04  4.06500E+03  7.56000E+03  9.99900E-01   15    2    1   1    10    101  0.00000E+00
  1   27    4    1  8.01803E+03  6.76242E+03  2.82097E+02  1.00000E+00  1.14237E+04  4.09500E+03  7.36000E+03  9.99900E-01   15    2    1   1    10    101  0.00000E+00
  1   27    3    1  8.01646E+03  7.14554E+03  2.82117E+02  1.00000E+00  1.12171E+04  4.09500E+03  7.56000E+03  9.99900E-01   15    2    1   1    10    101  0.00000E+00
  1   27    4    1  8.01544E+03  6.78357E+03  2.82097E+02  1.00000E+00  1.11995E+04  4.13500E+03  7.36000E+03  9.99900E-01   16    2    1   1    10    101  0.00000E+00
  1   27    3    1  8.01384E+03  7.15984E+03  2.82117E+02  1.00000E+00  1.10015E+04  4.13500E+03  7.56000E+03  9.99900E-01   16    2    1   1    10    101  0.00000E+00
  1   27    4    1  8.01215E+03  6.80923E+03  2.82097E+02  1.00000E+00  1.09218E+04  4.18500E+03  7.36000E+03  9.99900E-01   16    2    1   1    10    101  0.00000E+00
  1   27    3    1  8.01050E+03  7.17721E+03  2.82117E+02  1.00000E+00  1.07361E+04  4.18500E+03  7.56000E+03  9.99900E-01   16    2    1   1    10    101  0.00000E+00
  1   27    4    1  8.00797E+03  6.83998E+03  2.82097E+02  1.00000E+00  1.05810E+04  4.24750E+03  7.36000E+03  9.99900E-01   17    2    1   1    10    101  0.00000E+00
  1   27    3    1  8.00623E+03  7.19810E+03  2.82117E+02  1.00000E+00  1.04084E+04  4.24750E+03  7.56000E+03  9.99900E-01   17    2    1   1    10    101  0.00000E+00
  1   27    3    1  8.00296E+03  6.87500E+03  2.82117E+02  1.00000E+00  1.01823E+04  4.32250E+03  7.36000E+03  9.99900E-01   17    2    1   1    10    101  0.00000E+00
  1   27    3    1  8.00098E+03  7.22206E+03  2.82117E+02  1.00000E+00  1.00236E+04  4.32250E+03  7.56000E+03  9.99900E-01   17    2    1   1    10    101  0.00000E+00
  1   27    3    1  7.99677E+03  6.91329E+03  2.82117E+02  1.00000E+00  9.74813E+03  4.41000E+03  7.36000E+03  9.99900E-01   18    2    1   1    10    101  0.00000E+00
  1   27    3    1  7.99469E+03  7.24837E+03  2.82117E+02  1.00000E+00  9.58464E+03  4.41000E+03  7.56000E+03  9.99900E-01   18    2    1   1    10    101  0.00000E+00
  1   27    3    1  7.98940E+03  6.95435E+03  2.82117E+02  1.00000E+00  9.26253E+03  4.51000E+03  7.36000E+03  9.99900E-01   18    2    1   1    10    101  0.00000E+00
  1   27    2    1  7.98739E+03  7.27644E+03  2.82132E+02  1.00000E+00  9.10204E+03  4.51000E+03  7.56000E+03  9.99900E-01   18    2    1   1    10    101  0.00000E+00
  1   27    3    1  7.97978E+03  7.00116E+03  2.82117E+02  1.00000E+00  8.67288E+03  4.63500E+03  7.36000E+03  9.99900E-01   19    2    1   1    10    101  0.00000E+00