@ [ MODPATH Version 3.00 (V3, Release 2, 6-2000)(COMPACT)(TREF=   0.183595E+06 ) ]
  1    491  1.85673E+03  3.46984E+03  1.00000E+00  6.46981E+03  4.01000E+03  4.01286E+03  7.14286E-02    365   3     6     11  0.00000E+00
  1    492  2.05923E+03  3.47715E+03  1.00000E+00  5.22318E+03  4.01000E+03  4.01286E+03  2.14286E-01    365   3     6     11  0.00000E+00
  1    492  2.26405E+03  3.48483E+03  1.00000E+00  4.08330E+03  4.01000E+03  4.01286E+03  3.57143E-01    365   3     6     11  0.00000E+00
  1    493  2.47117E+03  3.49243E+03  1.00000E+00  3.03130E+03  4.01000E+03  4.01286E+03  5.00000E-01    365   3     6     11  0.00000E+00
  1    466  2.68081E+03  3.50048E+03  1.00000E+00  2.05425E+03  4.01000E+03  4.01286E+03  6.42857E-01    365   3     6     11  0.00000E+00
  1    467  2.89422E+03  3.50871E+03  1.00000E+00  1.13985E+03  4.01000E+03  4.01286E+03  7.85714E-01    365   3     6     11  0.00000E+00
  1    468  3.43523E+03  3.69081E+03  1.00000E+00  3.39831E+02  4.01000E+03  4.01286E+03  9.28571E-01    365   3     6     61  0.00000E+00
  1    464  1.80571E+03  3.64398E+03  1.00000E+00  6.46884E+03  4.01000E+03  4.01857E+03  7.14286E-02    365   3     6     11  0.00000E+00
  1    465  2.00311E+03  3.64882E+03  1.00000E+00  5.22399E+03  4.01000E+03  4.01857E+03  2.14286E-01    365   3     6     11  0.00000E+00
  1    465  2.20303E+03  3.65423E+03  1.00000E+00  4.08659E+03  4.01000E+03  4.01857E+03  3.57143E-01    365   3     6     11  0.00000E+00
  1    466  2.40555E+03  3.65921E+03  1.00000E+00  3.03374E+03  4.01000E+03  4.01857E+03  5.00000E-01    365   3     6     11  0.00000E+00
  1    466  2.61079E+03  3.66491E+03  1.00000E+00  2.05703E+03  4.01000E+03  4.01857E+03  6.42857E-01    365   3     6     11  0.00000E+00
  1    467  2.81889E+03  3.67031E+03  1.00000E+00  1.14032E+03  4.01000E+03  4.01857E+03  7.85714E-01    365   3     6     11  0.00000E+00
  1    441  3.38105E+03  3.79920E+03  1.00000E+00  3.40749E+02  4.01000E+03  4.01857E+03  9.28571E-01    365   3     6     61  0.00000E+00
  1    437  1.77088E+03  3.83324E+03  1.00000E+00  6.46379E+03  4.01000E+03  4.02429E+03  7.14286E-02    365   3     6     11  0.00000E+00
  1    437  1.96450E+03  3.83572E+03  1.00000E+00  5.22149E+03  4.01000E+03  4.02429E+03  2.14286E-01    365   3     6     11  0.00000E+00
  1    438  2.16065E+03  3.83842E+03  1.00000E+00  4.08550E+03  4.01000E+03  4.02429E+03  3.57143E-01    365   3     6     11  0.00000E+00
  1    438  2.35951E+03  3.84097E+03  1.00000E+00  3.03404E+03  4.01000E+03  4.02429E+03  5.00000E-01    365   3     6     11  0.00000E+00
  1    439  2.56112E+03  3.84380E+03  1.00000E+00  2.05775E+03  4.01000E+03  4.02429E+03  6.42857E-01    365   3     6     11  0.00000E+00
  1    439  2.76575E+03  3.84654E+03  1.00000E+00  1.14123E+03  4.01000E+03  4.02429E+03  7.85714E-01    365   3     6     11  0.00000E+00
  1    414  3.33619E+03  3.91225E+03  1.00000E+00  3.41174E+02  4.01000E+03  4.02429E+03  9.28571E-01    365   3     6     61  0.00000E+00
  1    356  1.76007E+03  4.03017E+03  1.00000E+00  6.45534E+03  4.01000E+03  4.03000E+03  7.14286E-02    365   3     6     11  0.00000E+00
  1    356  1.95227E+03  4.03013E+03  1.00000E+00  5.21602E+03  4.01000E+03  4.03000E+03  2.14286E-01    365   3     6     11  0.00000E+00
  1    357  2.14702E+03  4.03010E+03  1.00000E+00  4.08209E+03  4.01000E+03  4.03000E+03  3.57143E-01    365   3     6     11  0.00000E+00
  1    357  2.34453E+03  4.03006E+03  1.00000E+00  3.03248E+03  4.01000E+03  4.03000E+03  5.00000E-01    365   3     6     11  0.00000E+00
  1    358  2.54483E+03  4.03003E+03  1.00000E+00  2.05726E+03  4.01000E+03  4.03000E+03  6.42857E-01    365   3     6     11  0.00000E+00
  1    358  2.74825E+03  4.03000E+03  1.00000E+00  1.14176E+03  4.01000E+03  4.03000E+03  7.85714E-01    365   3     6     11  0.00000E+00
  1    360  3.31750E+03  4.03000E+03  1.00000E+00  3.41369E+02  4.01000E+03  4.03000E+03  9.28571E-01    365   3     6     61  0.00000E+00
  1    275  1.77089E+03  4.22708E+03  1.00000E+00  6.46377E+03  4.01000E+03  4.03571E+03  7.14286E-02    365   3     6     11  0.00000E+00
  1    275  1.96451E+03  4.22453E+03  1.00000E+00  5.22149E+03  4.01000E+03  4.03571E+03  2.14286E-01    365   3     6     11  0.00000E+00
  1    276  2.16066E+03  4.22177E+03  1.00000E+00  4.08550E+03  4.01000E+03  4.03571E+03  3.57143E-01    365   3     6     11  0.00000E+00
  1    276  2.35951E+03  4.21915E+03  1.00000E+00  3.03405E+03  4.01000E+03  4.03571E+03  5.00000E-01    365   3     6     11  0.00000E+00
  1    277  2.56112E+03  4.21626E+03  1.00000E+00  2.05776E+03  4.01000E+03  4.03571E+03  6.42857E-01    365   3     6     11  0.00000E+00
  1    277  2.76575E+03  4.21346E+03  1.00000E+00  1.14123E+03  4.01000E+03  4.03571E+03  7.85714E-01    365   3     6     11  0.00000E+00
  1    306  3.33619E+03  4.14775E+03  1.00000E+00  3.41174E+02  4.01000E+03  4.03571E+03  9.28571E-01    365   3     6     61  0.00000E+00
  1    248  1.80572E+03  4.41630E+03  1.00000E+00  6.46881E+03  4.01000E+03  4.04143E+03  7.14286E-02    365   3     6     11  0.00000E+00
  1    249  2.00312E+03  4.41140E+03  1.00000E+00  5.22398E+03  4.01000E+03  4.04143E+03  2.14286E-01    365   3     6     11  0.00000E+00
  1    249  2.20304E+03  4.40593E+03  1.00000E+00  4.08658E+03  4.01000E+03  4.04143E+03  3.57143E-01    365   3     6     11  0.00000E+00
  1    250  2.40555E+03  4.40089E+03  1.00000E+00  3.03373E+03  4.01000E+03  4.04143E+03  5.00000E-01    365   3     6     11  0.00000E+00
  1    250  2.61079E+03  4.39513E+03  1.00000E+00  2.05703E+03  4.01000E+03  4.04143E+03  6.42857E-01    365   3     6     11  0.00000E+00
  1    251  2.81889E+03  4.38969E+03  1.00000E+00  1.14032E+03  4.01000E+03  4.04143E+03  7.85714E-01    365   3     6     11  0.00000E+00
  1    279  3.38105E+03  4.26079E+03  1.00000E+00  3.40746E+02  4.01000E+03  4.04143E+03  9.28571E-01    365   3     6     61  0.00000E+00
  1    221  1.85674E+03  4.59042E+03  1.00000E+00  6.46983E+03  4.01000E+03  4.04714E+03  7.14286E-02    365   3     6     11  0.00000E+00
  1    222  2.05923E+03  4.58304E+03  1.00000E+00  5.22320E+03  4.01000E+03  4.04714E+03  2.14286E-01    365   3     6     11  0.00000E+00
  1    222  2.26406E+03  4.57531E+03  1.00000E+00  4.08332E+03  4.01000E+03  4.04714E+03  3.57143E-01    365   3     6     11  0.00000E+00
  1    223  2.47118E+03  4.56766E+03  1.00000E+00  3.03130E+03  4.01000E+03  4.04714E+03  5.00000E-01    365   3     6     11  0.00000E+00
  1    250  2.68081E+03  4.55956E+03  1.00000E+00  2.05424E+03  4.01000E+03  4.04714E+03  6.42857E-01    365   3     6     11  0.00000E+00
  1    251  2.89422E+03  4.55128E+03  1.00000E+00  1.13984E+03  4.01000E+03  4.04714E+03  7.85714E-01    365   3     6     11  0.00000E+00
  1    252  3.43523E+03  4.36919E+03  1.00000E+00  3.39828E+02  4.01000E+03  4.04714E+03  9.28571E-01    365   3     6     61  0.00000E+00
  1    520  2.77194E+03  3.04762E+03  1.00000E+00  6.61512E+03  4.05000E+03  4.01286E+03  7.14286E-02    365   3     6     11  0.00000E+00
  1    521  3.08551E+03  3.06758E+03  1.00000E+00  5.31705E+03  4.05000E+03  4.01286E+03  2.14286E-01    365   3     6     11  0.00000E+00
  1    522  3.40228E+03  3.08768E+03  1.00000E+00  4.13232E+03  4.05000E+03  4.01286E+03  3.57143E-01    365   3     6     11  0.00000E+00
  1    524  3.72193E+03  3.10806E+03  1.00000E+00  3.04393E+03  4.05000E+03  4.01286E+03  5.00000E-01    365   3     6     11  0.00000E+00
  1    527  4.04417E+03  3.12803E+03  1.00000E+00  2.04061E+03  4.05000E+03  4.01286E+03  6.42857E-01    365   3     6     11  0.00000E+00
  1    531  4.36875E+03  3.14639E+03  1.00000E+00  1.11532E+03  4.05000E+03  4.01286E+03  7.85714E-01    365   3     6     11  0.00000E+00
  1    477  4.38483E+03  3.57079E+03  1.00000E+00  3.33124E+02  4.05000E+03  4.01286E+03  9.28571E-01    365   3     6     61  0.00000E+00
  1    494  2.93648E+03  3.28200E+03  1.00000E+00  6.48377E+03  4.05000E+03  4.01857E+03  7.14286E-02    365   3     6     11  0.00000E+00
  1    495  3.25637E+03  3.29887E+03  1.00000E+00  5.24134E+03  4.05000E+03  4.01857E+03  2.14286E-01    365   3     6     11  0.00000E+00
  1    496  3.58203E+03  3.31668E+03  1.00000E+00  4.09492E+03  4.05000E+03  4.01857E+03  3.57143E-01    365   3     6     11  0.00000E+00
  1    498  3.91345E+03  3.33464E+03  1.00000E+00  3.02836E+03  4.05000E+03  4.01857E+03  5.00000E-01    365   3     6     11  0.00000E+00
  1    503  4.25042E+03  3.35168E+03  1.00000E+00  2.03424E+03  4.05000E+03  4.01857E+03  6.42857E-01    365   3     6     11  0.00000E+00
  1    505  4.59269E+03  3.36656E+03  1.00000E+00  1.11173E+03  4.05000E+03  4.01857E+03  7.85714E-01    365   3     6     11  0.00000E+00
  1    450  4.50379E+03  3.70239E+03  1.00000E+00  3.32316E+02  4.05000E+03  4.01857E+03  9.28571E-01    365   3     6     61  0.00000E+00
  1    467  3.07172E+03  3.57953E+03  1.00000E+00  6.41935E+03  4.05000E+03  4.02429E+03  7.14286E-02    365   3     6     11  0.00000E+00
  1    468  3.39860E+03  3.59131E+03  1.00000E+00  5.21026E+03  4.05000E+03  4.02429E+03  2.14286E-01    365   3     6     11  0.00000E+00
  1    470  3.73354E+03  3.60376E+03  1.00000E+00  4.08278E+03  4.05000E+03  4.02429E+03  3.57143E-01    365   3     6     11  0.00000E+00
  1    474  4.07694E+03  3.61635E+03  1.00000E+00  3.02370E+03  4.05000E+03  4.02429E+03  5.00000E-01    365   3     6     11  0.00000E+00
  1    477  4.42871E+03  3.62778E+03  1.00000E+00  2.02996E+03  4.05000E+03  4.02429E+03  6.42857E-01    365   3     6     11  0.00000E+00
  1    478  4.78825E+03  3.63709E+03  1.00000E+00  1.10794E+03  4.05000E+03  4.02429E+03  7.85714E-01    365   3     6     11  0.00000E+00
  1    424  4.58025E+03  3.85054E+03  1.00000E+00  3.31925E+02  4.05000E+03  4.02429E+03  9.28571E-01    365   3     6     61  0.00000E+00
  1    359  3.14396E+03  4.03011E+03  1.00000E+00  6.33791E+03  4.05000E+03  4.03000E+03  7.14286E-02    365   3     6     11  0.00000E+00
  1    360  3.46853E+03  4.03007E+03  1.00000E+00  5.16731E+03  4.05000E+03  4.03000E+03  2.14286E-01    365   3     6     11  0.00000E+00
  1    362  3.80310E+03  4.03003E+03  1.00000E+00  4.06563E+03  4.05000E+03  4.03000E+03  3.57143E-01    365   3     6     11  0.00000E+00
  1    367  4.14882E+03  4.03000E+03  1.00000E+00  3.01875E+03  4.05000E+03  4.03000E+03  5.00000E-01    365   3     6     11  0.00000E+00
  1    369  4.50578E+03  4.02999E+03  1.00000E+00  2.02786E+03  4.05000E+03  4.03000E+03  6.42857E-01    365   3     6     11  0.00000E+00
  1    371  4.87259E+03  4.02999E+03  1.00000E+00  1.10596E+03  4.05000E+03  4.03000E+03  7.85714E-01    365   3     6     11  0.00000E+00
  1    370  4.61017E+03  4.03000E+03  1.00000E+00  3.32277E+02  4.05000E+03  4.03000E+03  9.28571E-01    365   3     6     61  0.00000E+00
  1    251  3.07167E+03  4.48062E+03  1.00000E+00  6.41936E+03  4.05000E+03  4.03571E+03  7.14286E-02    365   3     6     11  0.00000E+00
  1    252  3.39854E+03  4.46879E+03  1.00000E+00  5.21027E+03  4.05000E+03  4.03571E+03  2.14286E-01    365   3     6     11  0.00000E+00
  1    254  3.73349E+03  4.45629E+03  1.00000E+00  4.08277E+03  4.05000E+03  4.03571E+03  3.57143E-01    365   3     6     11  0.00000E+00
  1    258  4.07690E+03  4.44366E+03  1.00000E+00  3.02371E+03  4.05000E+03  4.03571E+03  5.00000E-01    365   3     6     11  0.00000E+00
  1    261  4.42871E+03  4.43222E+03  1.00000E+00  2.02995E+03  4.05000E+03  4.03571E+03  6.42857E-01    365   3     6     11  0.00000E+00
  1    262  4.78825E+03  4.42289E+03  1.00000E+00  1.10794E+03  4.05000E+03  4.03571E+03  7.85714E-01    365   3     6     11  0.00000E+00
  1    316  4.58026E+03  4.20946E+03  1.00000E+00  3.31930E+02  4.05000E+03  4.03571E+03  9.28571E-01    365   3     6     61  0.00000E+00
  1    224  2.93642E+03  4.77809E+03  1.00000E+00  6.48379E+03  4.05000E+03  4.04143E+03  7.14286E-02    365   3     6     11  0.00000E+00
  1    225  3.25631E+03  4.76118E+03  1.00000E+00  5.24135E+03  4.05000E+03  4.04143E+03  2.14286E-01    365   3     6     11  0.00000E+00
  1    226  3.58198E+03  4.74333E+03  1.00000E+00  4.09493E+03  4.05000E+03  4.04143E+03  3.57143E-01    365   3     6     11  0.00000E+00
  1    228  3.91342E+03  4.72535E+03  1.00000E+00  3.02836E+03  4.05000E+03  4.04143E+03  5.00000E-01    365   3     6     11  0.00000E+00
  1    233  4.25043E+03  4.70829E+03  1.00000E+00  2.03424E+03  4.05000E+03  4.04143E+03  6.42857E-01    365   3     6     11  0.00000E+00
  1    235  4.59272E+03  4.69340E+03  1.00000E+00  1.11173E+03  4.05000E+03  4.04143E+03  7.85714E-01    365   3     6     11  0.00000E+00
  1    288  4.50380E+03  4.35759E+03  1.00000E+00  3.32319E+02  4.05000E+03  4.04143E+03  9.28571E-01    365   3     6     61  0.00000E+00
  1    196  2.77186E+03  5.01249E+03  1.00000E+00  6.61508E+03  4.05000E+03  4.04714E+03  7.14286E-02    365   3     6     11  0.00000E+00
  1    197  3.08542E+03  4.99249E+03  1.00000E+00  5.31704E+03  4.05000E+03  4.04714E+03  2.14286E-01    365   3     6     11  0.00000E+00
  1    198  3.40219E+03  4.97236E+03  1.00000E+00  4.13232E+03  4.05000E+03  4.04714E+03  3.57143E-01    365   3     6     11  0.00000E+00
  1    200  3.72186E+03  4.95197E+03  1.00000E+00  3.04394E+03  4.05000E+03  4.04714E+03  5.00000E-01    365   3     6     11  0.00000E+00
  1    203  4.04412E+03  4.93198E+03  1.00000E+00  2.04063E+03  4.05000E+03  4.04714E+03  6.42857E-01    365   3     6     11  0.00000E+00
  1    207  4.36874E+03  4.91361E+03  1.00000E+00  1.11533E+03  4.05000E+03  4.04714E+03  7.85714E-01    365   3     6     11  0.00000E+00
  1    261  4.38483E+03  4.48921E+03  1.00000E+00  3.33121E+02  4.05000E+03  4.04714E+03  9.28571E-01    365   3     6     61  0.00000E+00
  1    491  1.93454E+03  3.30759E+03  1.00000E+00  6.46814E+03  4.01286E+03  4.01000E+03  7.14286E-02    365   3     6     11  0.00000E+00
  1    492  2.14542E+03  3.31745E+03  1.00000E+00  5.22381E+03  4.01286E+03  4.01000E+03  2.14286E-01    365   3     6     11  0.00000E+00
  1    492  2.35881E+03  3.32696E+03  1.00000E+00  4.08311E+03  4.01286E+03  4.01000E+03  3.57143E-01    365   3     6     11  0.00000E+00
  1    493  2.57471E+03  3.33729E+03  1.00000E+00  3.03224E+03  4.01286E+03  4.01000E+03  5.00000E-01    365   3     6     11  0.00000E+00
  1    493  2.79326E+03  3.34719E+03  1.00000E+00  2.05293E+03  4.01286E+03  4.01000E+03  6.42857E-01    365   3     6     11  0.00000E+00
  1    494  3.01451E+03  3.35837E+03  1.00000E+00  1.13938E+03  4.01286E+03  4.01000E+03  7.85714E-01    365   3     6     11  0.00000E+00
  1    469  3.52527E+03  3.59322E+03  1.00000E+00  3.39065E+02  4.01286E+03  4.01000E+03  9.28571E-01    365   3     6     61  0.00000E+00
  1    519  2.00638E+03  3.15273E+03  1.00000E+00  6.49446E+03  4.01857E+03  4.01000E+03  7.14286E-02    365   3     6     11  0.00000E+00
  1    519  2.22552E+03  3.16512E+03  1.00000E+00  5.23685E+03  4.01857E+03  4.01000E+03  2.14286E-01    365   3     6     11  0.00000E+00
  1    520  2.44650E+03  3.17688E+03  1.00000E+00  4.08736E+03  4.01857E+03  4.01000E+03  3.57143E-01    365   3     6     11  0.00000E+00
  1    520  2.66930E+03  3.18950E+03  1.00000E+00  3.03103E+03  4.01857E+03  4.01000E+03  5.00000E-01    365   3     6     11  0.00000E+00
  1    494  2.89421E+03  3.20216E+03  1.00000E+00  2.05180E+03  4.01857E+03  4.01000E+03  6.42857E-01    365   3     6     11  0.00000E+00
  1    494  3.12347E+03  3.21529E+03  1.00000E+00  1.13633E+03  4.01857E+03  4.01000E+03  7.85714E-01    365   3     6     11  0.00000E+00
  1    469  3.60326E+03  3.51137E+03  1.00000E+00  3.38609E+02  4.01857E+03  4.01000E+03  9.28571E-01    365   3     6     61  0.00000E+00
  1    519  2.10866E+03  3.02812E+03  1.00000E+00  6.52087E+03  4.02429E+03  4.01000E+03  7.14286E-02    365   3     6     11  0.00000E+00
  1    519  2.34048E+03  3.04169E+03  1.00000E+00  5.25415E+03  4.02429E+03  4.01000E+03  2.14286E-01    365   3     6     11  0.00000E+00
  1    520  2.57430E+03  3.05595E+03  1.00000E+00  4.09990E+03  4.02429E+03  4.01000E+03  3.57143E-01    365   3     6     11  0.00000E+00
  1    521  2.81012E+03  3.06977E+03  1.00000E+00  3.03599E+03  4.02429E+03  4.01000E+03  5.00000E-01    365   3     6     11  0.00000E+00
  1    521  3.04787E+03  3.08498E+03  1.00000E+00  2.05290E+03  4.02429E+03  4.01000E+03  6.42857E-01    365   3     6     11  0.00000E+00
  1    522  3.28748E+03  3.09985E+03  1.00000E+00  1.13513E+03  4.02429E+03  4.01000E+03  7.85714E-01    365   3     6     11  0.00000E+00
  1    497  3.71956E+03  3.44018E+03  1.00000E+00  3.38240E+02  4.02429E+03  4.01000E+03  9.28571E-01    365   3     6     61  0.00000E+00
  1    519  2.22125E+03  2.92135E+03  1.00000E+00  6.51074E+03  4.03000E+03  4.01000E+03  7.14286E-02    365   3     6     11  0.00000E+00
  1    520  2.46494E+03  2.93661E+03  1.00000E+00  5.24704E+03  4.03000E+03  4.01000E+03  2.14286E-01    365   3     6     11  0.00000E+00
  1    520  2.71084E+03  2.95251E+03  1.00000E+00  4.09408E+03  4.03000E+03  4.01000E+03  3.57143E-01    365   3     6     11  0.00000E+00
  1    521  2.95886E+03  2.96886E+03  1.00000E+00  3.03344E+03  4.03000E+03  4.01000E+03  5.00000E-01    365   3     6     11  0.00000E+00
  1    522  3.20897E+03  2.98498E+03  1.00000E+00  2.04866E+03  4.03000E+03  4.01000E+03  6.42857E-01    365   3     6     11  0.00000E+00
  1    522  3.46101E+03  3.00197E+03  1.00000E+00  1.13271E+03  4.03000E+03  4.01000E+03  7.85714E-01    365   3     6     11  0.00000E+00
  1    497  3.84294E+03  3.39282E+03  1.00000E+00  3.37963E+02  4.03000E+03  4.01000E+03  9.28571E-01    365   3     6     61  0.00000E+00
  1    519  2.34496E+03  2.85581E+03  1.00000E+00  6.50937E+03  4.03571E+03  4.01000E+03  7.14286E-02    365   3     6     11  0.00000E+00
  1    520  2.60236E+03  2.87330E+03  1.00000E+00  5.24697E+03  4.03571E+03  4.01000E+03  2.14286E-01    365   3     6     11  0.00000E+00
  1    521  2.86215E+03  2.89052E+03  1.00000E+00  4.09281E+03  4.03571E+03  4.01000E+03  3.57143E-01    365   3     6     11  0.00000E+00
  1    521  3.12427E+03  2.90850E+03  1.00000E+00  3.03084E+03  4.03571E+03  4.01000E+03  5.00000E-01    365   3     6     11  0.00000E+00
  1    522  3.38859E+03  2.92667E+03  1.00000E+00  2.04661E+03  4.03571E+03  4.01000E+03  6.42857E-01    365   3     6     11  0.00000E+00
  1    523  3.65493E+03  2.94483E+03  1.00000E+00  1.12944E+03  4.03571E+03  4.01000E+03  7.85714E-01    365   3     6     11  0.00000E+00
  1    499  3.97778E+03  3.38114E+03  1.00000E+00  3.37035E+02  4.03571E+03  4.01000E+03  9.28571E-01    365   3     6     61  0.00000E+00
  1    520  2.48289E+03  2.84424E+03  1.00000E+00  6.52386E+03  4.04143E+03  4.01000E+03  7.14286E-02    365   3     6     11  0.00000E+00
  1    520  2.75660E+03  2.86263E+03  1.00000E+00  5.25540E+03  4.04143E+03  4.01000E+03  2.14286E-01    365   3     6     11  0.00000E+00
  1    521  3.03293E+03  2.88194E+03  1.00000E+00  4.09846E+03  4.04143E+03  4.01000E+03  3.57143E-01    365   3     6     11  0.00000E+00
  1    522  3.31178E+03  2.90106E+03  1.00000E+00  3.03191E+03  4.04143E+03  4.01000E+03  5.00000E-01    365   3     6     11  0.00000E+00
  1    523  3.59295E+03  2.92048E+03  1.00000E+00  2.04413E+03  4.04143E+03  4.01000E+03  6.42857E-01    365   3     6     11  0.00000E+00
  1    525  3.87622E+03  2.93966E+03  1.00000E+00  1.12541E+03  4.04143E+03  4.01000E+03  7.85714E-01    365   3     6     11  0.00000E+00
  1    502  4.11993E+03  3.41333E+03  1.00000E+00  3.35586E+02  4.04143E+03  4.01000E+03  9.28571E-01    365   3     6     61  0.00000E+00
  1    520  2.62862E+03  2.90655E+03  1.00000E+00  6.55761E+03  4.04714E+03  4.01000E+03  7.14286E-02    365   3     6     11  0.00000E+00
  1    521  2.92112E+03  2.92590E+03  1.00000E+00  5.27854E+03  4.04714E+03  4.01000E+03  2.14286E-01    365   3     6     11  0.00000E+00
  1    522  3.21653E+03  2.94549E+03  1.00000E+00  4.10987E+03  4.04714E+03  4.01000E+03  3.57143E-01    365   3     6     11  0.00000E+00
  1    523  3.51465E+03  2.96581E+03  1.00000E+00  3.03575E+03  4.04714E+03  4.01000E+03  5.00000E-01    365   3     6     11  0.00000E+00
  1    524  3.81521E+03  2.98601E+03  1.00000E+00  2.04229E+03  4.04714E+03  4.01000E+03  6.42857E-01    365   3     6     11  0.00000E+00
  1    529  4.11797E+03  3.00532E+03  1.00000E+00  1.12077E+03  4.04714E+03  4.01000E+03  7.85714E-01    365   3     6     11  0.00000E+00
  1    503  4.26523E+03  3.48412E+03  1.00000E+00  3.33945E+02  4.04714E+03  4.01000E+03  9.28571E-01    365   3     6     61  0.00000E+00
  1    221  1.93455E+03  4.75263E+03  1.00000E+00  6.46811E+03  4.01286E+03  4.05000E+03  7.14286E-02    365   3     6     11  0.00000E+00
  1    222  2.14542E+03  4.74272E+03  1.00000E+00  5.22380E+03  4.01286E+03  4.05000E+03  2.14286E-01    365   3     6     11  0.00000E+00
  1    222  2.35881E+03  4.73316E+03  1.00000E+00  4.08311E+03  4.01286E+03  4.05000E+03  3.57143E-01    365   3     6     11  0.00000E+00
  1    223  2.57471E+03  4.72278E+03  1.00000E+00  3.03225E+03  4.01286E+03  4.05000E+03  5.00000E-01    365   3     6     11  0.00000E+00
  1    223  2.79325E+03  4.71284E+03  1.00000E+00  2.05293E+03  4.01286E+03  4.05000E+03  6.42857E-01    365   3     6     11  0.00000E+00
  1    224  3.01450E+03  4.70163E+03  1.00000E+00  1.13937E+03  4.01286E+03  4.05000E+03  7.85714E-01    365   3     6     11  0.00000E+00
  1    253  3.52527E+03  4.46677E+03  1.00000E+00  3.39066E+02  4.01286E+03  4.05000E+03  9.28571E-01    365   3     6     61  0.00000E+00
  1    195  2.00637E+03  4.90747E+03  1.00000E+00  6.49451E+03  4.01857E+03  4.05000E+03  7.14286E-02    365   3     6     11  0.00000E+00
  1    195  2.22552E+03  4.89503E+03  1.00000E+00  5.23689E+03  4.01857E+03  4.05000E+03  2.14286E-01    365   3     6     11  0.00000E+00
  1    196  2.44650E+03  4.88323E+03  1.00000E+00  4.08738E+03  4.01857E+03  4.05000E+03  3.57143E-01    365   3     6     11  0.00000E+00
  1    196  2.66930E+03  4.87057E+03  1.00000E+00  3.03105E+03  4.01857E+03  4.05000E+03  5.00000E-01    365   3     6     11  0.00000E+00
  1    224  2.89421E+03  4.85788E+03  1.00000E+00  2.05180E+03  4.01857E+03  4.05000E+03  6.42857E-01    365   3     6     11  0.00000E+00
  1    224  3.12348E+03  4.84472E+03  1.00000E+00  1.13633E+03  4.01857E+03  4.05000E+03  7.85714E-01    365   3     6     11  0.00000E+00
  1    253  3.60326E+03  4.54863E+03  1.00000E+00  3.38604E+02  4.01857E+03  4.05000E+03  9.28571E-01    365   3     6     61  0.00000E+00
  1    195  2.10865E+03  5.03205E+03  1.00000E+00  6.52084E+03  4.02429E+03  4.05000E+03  7.14286E-02    365   3     6     11  0.00000E+00
  1    195  2.34046E+03  5.01844E+03  1.00000E+00  5.25415E+03  4.02429E+03  4.05000E+03  2.14286E-01    365   3     6     11  0.00000E+00
  1    196  2.57428E+03  5.00413E+03  1.00000E+00  4.09989E+03  4.02429E+03  4.05000E+03  3.57143E-01    365   3     6     11  0.00000E+00
  1    197  2.81010E+03  4.99028E+03  1.00000E+00  3.03600E+03  4.02429E+03  4.05000E+03  5.00000E-01    365   3     6     11  0.00000E+00
  1    197  3.04785E+03  4.97504E+03  1.00000E+00  2.05290E+03  4.02429E+03  4.05000E+03  6.42857E-01    365   3     6     11  0.00000E+00
  1    198  3.28746E+03  4.96015E+03  1.00000E+00  1.13514E+03  4.02429E+03  4.05000E+03  7.85714E-01    365   3     6     11  0.00000E+00
  1    227  3.71956E+03  4.61983E+03  1.00000E+00  3.38244E+02  4.02429E+03  4.05000E+03  9.28571E-01    365   3     6     61  0.00000E+00
  1    195  2.22124E+03  5.13879E+03  1.00000E+00  6.51070E+03  4.03000E+03  4.05000E+03  7.14286E-02    365   3     6     11  0.00000E+00
  1    196  2.46492E+03  5.12349E+03  1.00000E+00  5.24702E+03  4.03000E+03  4.05000E+03  2.14286E-01    365   3     6     11  0.00000E+00
  1    196  2.71082E+03  5.10756E+03  1.00000E+00  4.09408E+03  4.03000E+03  4.05000E+03  3.57143E-01    365   3     6     11  0.00000E+00
  1    197  2.95884E+03  5.09119E+03  1.00000E+00  3.03343E+03  4.03000E+03  4.05000E+03  5.00000E-01    365   3     6     11  0.00000E+00
  1    198  3.20896E+03  5.07503E+03  1.00000E+00  2.04866E+03  4.03000E+03  4.05000E+03  6.42857E-01    365   3     6     11  0.00000E+00
  1    198  3.46101E+03  5.05803E+03  1.00000E+00  1.13272E+03  4.03000E+03  4.05000E+03  7.85714E-01    365   3     6     11  0.00000E+00
  1    227  3.84294E+03  4.66718E+03  1.00000E+00  3.37962E+02  4.03000E+03  4.05000E+03  9.28571E-01    365   3     6     61  0.00000E+00
  1    195  2.34494E+03  5.20431E+03  1.00000E+00  6.50934E+03  4.03571E+03  4.05000E+03  7.14286E-02    365   3     6     11  0.00000E+00
  1    196  2.60232E+03  5.18679E+03  1.00000E+00  5.24695E+03  4.03571E+03  4.05000E+03  2.14286E-01    365   3     6     11  0.00000E+00
  1    197  2.86212E+03  5.16953E+03  1.00000E+00  4.09280E+03  4.03571E+03  4.05000E+03  3.57143E-01    365   3     6     11  0.00000E+00
  1    197  3.12424E+03  5.15153E+03  1.00000E+00  3.03083E+03  4.03571E+03  4.05000E+03  5.00000E-01    365   3     6     11  0.00000E+00
  1    198  3.38856E+03  5.13334E+03  1.00000E+00  2.04662E+03  4.03571E+03  4.05000E+03  6.42857E-01    365   3     6     11  0.00000E+00
  1    199  3.65492E+03  5.11517E+03  1.00000E+00  1.12945E+03  4.03571E+03  4.05000E+03  7.85714E-01    365   3     6     11  0.00000E+00
  1    229  3.97778E+03  4.67886E+03  1.00000E+00  3.37035E+02  4.03571E+03  4.05000E+03  9.28571E-01    365   3     6     61  0.00000E+00
  1    196  2.48286E+03  5.21587E+03  1.00000E+00  6.52382E+03  4.04143E+03  4.05000E+03  7.14286E-02    365   3     6     11  0.00000E+00
  1    196  2.75655E+03  5.19744E+03  1.00000E+00  5.25540E+03  4.04143E+03  4.05000E+03  2.14286E-01    365   3     6     11  0.00000E+00
  1    197  3.03288E+03  5.17810E+03  1.00000E+00  4.09845E+03  4.04143E+03  4.05000E+03  3.57143E-01    365   3     6     11  0.00000E+00
  1    198  3.31174E+03  5.15896E+03  1.00000E+00  3.03190E+03  4.04143E+03  4.05000E+03  5.00000E-01    365   3     6     11  0.00000E+00
  1    199  3.59292E+03  5.13954E+03  1.00000E+00  2.04414E+03  4.04143E+03  4.05000E+03  6.42857E-01    365   3     6     11  0.00000E+00
  1    201  3.87623E+03  5.12034E+03  1.00000E+00  1.12541E+03  4.04143E+03  4.05000E+03  7.85714E-01    365   3     6     11  0.00000E+00
  1    232  4.11993E+03  4.64667E+03  1.00000E+00  3.35589E+02  4.04143E+03  4.05000E+03  9.28571E-01    365   3     6     61  0.00000E+00
  1    196  2.62857E+03  5.15354E+03  1.00000E+00  6.55760E+03  4.04714E+03  4.05000E+03  7.14286E-02    365   3     6     11  0.00000E+00
  1    197  2.92107E+03  5.13416E+03  1.00000E+00  5.27854E+03  4.04714E+03  4.05000E+03  2.14286E-01    365   3     6     11  0.00000E+00
  1    198  3.21649E+03  5.11454E+03  1.00000E+00  4.10987E+03  4.04714E+03  4.05000E+03  3.57143E-01    365   3     6     11  0.00000E+00
  1    199  3.51462E+03  5.09421E+03  1.00000E+00  3.03575E+03  4.04714E+03  4.05000E+03  5.00000E-01    365   3     6     11  0.00000E+00
  1    200  3.81520E+03  5.07400E+03  1.00000E+00  2.04229E+03  4.04714E+03  4.05000E+03  6.42857E-01    365   3     6     11  0.00000E+00
  1    205  4.11799E+03  5.05467E+03  1.00000E+00  1.12078E+03  4.04714E+03  4.05000E+03  7.85714E-01    365   3     6     11  0.00000E+00
  1    233  4.26525E+03  4.57588E+03  1.00000E+00  3.33941E+02  4.04714E+03  4.05000E+03  9.28571E-01    365   3     6     61  0.00000E+00
  1    384  2.34983E+03  4.00571E+03  1.00000E+00  9.15262E+03  4.02000E+03  4.02000E+03  1.00000E-04    365   3     6     11  0.00000E+00
  1    330  2.34984E+03  4.05475E+03  1.00000E+00  9.15261E+03  4.02000E+03  4.04000E+03  1.00000E-04    365   3     6     11  0.00000E+00
  1    384  2.36634E+03  4.00195E+03  1.00000E+00  9.29160E+03  4.04000E+03  4.02000E+03  1.00000E-04    365   3     6     11  0.00000E+00
  1    330  2.36634E+03  4.05851E+03  1.00000E+00  9.29160E+03  4.04000E+03  4.04000E+03  1.00000E-04    365   3     6     11  0.00000E+00
  3    365  4.01241E+03  4.01259E+03  1.00000E+00  3.35850E-01  4.02000E+03  4.02000E+03  9.99900E-01    365   3     6     61  0.00000E+00
  3    365  4.01241E+03  4.04741E+03  1.00000E+00  3.35850E-01  4.02000E+03  4.04000E+03  9.99900E-01    365   3     6     61  0.00000E+00
  3    365  4.04722E+03  4.01259E+03  1.00000E+00  3.35850E-01  4.04000E+03  4.02000E+03  9.99900E-01    365   3     6     61  0.00000E+00
  3    365  4.04722E+03  4.04741E+03  1.00000E+00  3.35850E-01  4.04000E+03  4.04000E+03  9.99900E-01    365   3     6     61  0.00000E+00
