@ [ MODPATH 5.0 (TREF=   0.000000E+00 ) ]
  2   14   14    4  4.01000E+03  4.03000E+03  6.50368E+01  3.00736E-01  3.53081E+04  3.83000E+02  4.03000E+03  9.99000E-01    1   14    1   1     1     11  0.00000E+00
  2   14   14    4  4.01000E+03  4.03000E+03  7.81941E+01  5.63882E-01  2.31738E+04  7.66000E+02  4.03000E+03  9.99000E-01    2   14    1   1     1     11  0.00000E+00
  2   14   14    4  4.01000E+03  4.03000E+03  8.84632E+01  7.69265E-01  1.69500E+04  1.14900E+03  4.03000E+03  9.99000E-01    3   14    1   1     1     11  0.00000E+00
  2   14   14    4  4.01000E+03  4.03000E+03  9.55552E+01  9.11103E-01  1.32533E+04  1.53200E+03  4.03000E+03  9.99000E-01    4   14    1   1     1     11  0.00000E+00
  2   14   14    4  4.01000E+03  4.03000E+03  9.92812E+01  9.85624E-01  1.07777E+04  1.91500E+03  4.03000E+03  9.99000E-01    5   14    1   1     1     11  0.00000E+00
  2   14   14    4  4.04081E+03  4.03000E+03  1.00000E+02  1.00000E+00  9.36977E+03  2.29800E+03  4.03000E+03  9.99000E-01    6   14    1   1     1     11  0.00000E+00
  2   14   14    4  4.05000E+03  4.03000E+03  9.66553E+01  9.33105E-01  1.06798E+04  2.68100E+03  4.03000E+03  9.99000E-01    7   14    1   1     1     11  0.00000E+00
  2   14   14    4  4.05000E+03  4.03000E+03  8.03298E+01  6.06596E-01  2.23956E+04  3.06400E+03  4.03000E+03  9.99000E-01    8   14    1   1     1     11  0.00000E+00
  1   27   14    1  7.98737E+03  4.02999E+03  2.83272E+02  1.00000E+00  8.95968E+03  3.44700E+03  4.03000E+03  9.99000E-01    9   14    1   1     1     11  0.00000E+00
  1   27   14    1  7.95417E+03  4.02999E+03  2.83272E+02  1.00000E+00  7.57373E+03  3.83000E+03  4.03000E+03  9.99000E-01   11   14    1   1     1     11  0.00000E+00
  1   27   14    1  7.92218E+03  4.03000E+03  2.83272E+02  1.00000E+00  6.33885E+03  4.21300E+03  4.03000E+03  9.99000E-01   17   14    1   1     1     11  0.00000E+00
  1   27   14    1  7.89128E+03  4.03000E+03  2.83272E+02  1.00000E+00  5.22995E+03  4.59600E+03  4.03000E+03  9.99000E-01   19   14    1   1     1     11  0.00000E+00
  1   27   14    1  7.86120E+03  4.03000E+03  2.83272E+02  1.00000E+00  4.24169E+03  4.97900E+03  4.03000E+03  9.99000E-01   20   14    1   1     1     11  0.00000E+00
  1   27   14    1  7.83172E+03  4.03000E+03  2.83272E+02  1.00000E+00  3.36633E+03  5.36200E+03  4.03000E+03  9.99000E-01   21   14    1   1     1     11  0.00000E+00
  1   27   14    1  7.80267E+03  4.03000E+03  2.83272E+02  1.00000E+00  2.59587E+03  5.74500E+03  4.03000E+03  9.99000E-01   22   14    1   1     1     11  0.00000E+00
  1   27   14    1  7.77391E+03  4.03000E+03  2.83272E+02  1.00000E+00  1.92082E+03  6.12800E+03  4.03000E+03  9.99000E-01   23   14    1   1     1     11  0.00000E+00
  1   27   14    1  7.74536E+03  4.03000E+03  2.83272E+02  1.00000E+00  1.33185E+03  6.51100E+03  4.03000E+03  9.99000E-01   24   14    1   1     1     11  0.00000E+00
  1   27   14    1  7.71695E+03  4.03000E+03  2.83272E+02  1.00000E+00  8.20392E+02  6.89400E+03  4.03000E+03  9.99000E-01   25   14    1   1     1     11  0.00000E+00
  1   27   14    1  7.68863E+03  4.03000E+03  2.83272E+02  1.00000E+00  3.78798E+02  7.27700E+03  4.03000E+03  9.99000E-01   26   14    1   1     1     11  0.00000E+00
  1   27   14    1  7.66040E+03  4.03000E+03  2.83272E+02  1.00000E+00  6.83357E-01  7.65960E+03  4.03000E+03  9.99000E-01   26   14    1   1     1     11  0.00000E+00
