@ [ MODPATH 5.0 (TREF=   0.000000E+00 ) ]
  2   14   14    4  4.01000E+03  4.03000E+03  9.55552E+01  9.11103E-01  1.32533E+04  1.53200E+03  4.03000E+03  9.99000E-01    4   14    1   1     1     11  0.00000E+00
  1   27   14    1  7.95417E+03  4.02999E+03  2.83272E+02  1.00000E+00  7.57373E+03  3.83000E+03  4.03000E+03  9.99000E-01   11   14    1   1     1     11  0.00000E+00
