@ [ MODPATH Version 3.00 (V3, Release 2, 6-2000)(COMPACT)(TREF=   0.000000E+00 ) ]
  2   2552  4.01000E+03  4.03000E+03  3.00584E-01  3.53120E+04  3.83000E+02  4.03000E+03  9.99000E-01    352   1     1     11  0.00000E+00
  2   2552  4.01000E+03  4.03000E+03  5.63748E-01  2.31750E+04  7.66000E+02  4.03000E+03  9.99000E-01    353   1     1     11  0.00000E+00
  2   2552  4.01000E+03  4.02999E+03  7.69162E-01  1.69505E+04  1.14900E+03  4.03000E+03  9.99000E-01    354   1     1     11  0.00000E+00
  2   2552  4.01000E+03  4.02999E+03  9.11042E-01  1.32535E+04  1.53200E+03  4.03000E+03  9.99000E-01    355   1     1     11  0.00000E+00
  2   2552  4.01000E+03  4.02997E+03  9.85599E-01  1.07775E+04  1.91500E+03  4.03000E+03  9.99000E-01    356   1     1     11  0.00000E+00
  2   2552  4.04078E+03  4.02997E+03  1.00000E+00  9.36930E+03  2.29800E+03  4.03000E+03  9.99000E-01    357   1     1     11  0.00000E+00
  2   2552  4.05000E+03  4.02999E+03  9.33188E-01  1.06769E+04  2.68100E+03  4.03000E+03  9.99000E-01    358   1     1     11  0.00000E+00
  2   2552  4.05000E+03  4.03000E+03  6.07218E-01  2.23492E+04  3.06400E+03  4.03000E+03  9.99000E-01    359   1     1     11  0.00000E+00
  1    378  7.98743E+03  4.02998E+03  1.00000E+00  8.96119E+03  3.44700E+03  4.03000E+03  9.99000E-01    360   1     1     11  0.00000E+00
  1    378  7.95423E+03  4.03003E+03  1.00000E+00  7.57509E+03  3.83000E+03  4.03000E+03  9.99000E-01    362   1     1     11  0.00000E+00
  1    378  7.92223E+03  4.03006E+03  1.00000E+00  6.33999E+03  4.21300E+03  4.03000E+03  9.99000E-01    368   1     1     11  0.00000E+00
  1    378  7.89132E+03  4.03006E+03  1.00000E+00  5.23086E+03  4.59600E+03  4.03000E+03  9.99000E-01    370   1     1     11  0.00000E+00
  1    378  7.86124E+03  4.03005E+03  1.00000E+00  4.24242E+03  4.97900E+03  4.03000E+03  9.99000E-01    371   1     1     11  0.00000E+00
  1    378  7.83176E+03  4.03004E+03  1.00000E+00  3.36690E+03  5.36200E+03  4.03000E+03  9.99000E-01    372   1     1     11  0.00000E+00
  1    378  7.80270E+03  4.03003E+03  1.00000E+00  2.59632E+03  5.74500E+03  4.03000E+03  9.99000E-01    373   1     1     11  0.00000E+00
  1    378  7.77394E+03  4.03002E+03  1.00000E+00  1.92116E+03  6.12800E+03  4.03000E+03  9.99000E-01    374   1     1     11  0.00000E+00
  1    378  7.74538E+03  4.03001E+03  1.00000E+00  1.33209E+03  6.51100E+03  4.03000E+03  9.99000E-01    375   1     1     11  0.00000E+00
  1    378  7.71696E+03  4.03001E+03  1.00000E+00  8.20547E+02  6.89400E+03  4.03000E+03  9.99000E-01    376   1     1     11  0.00000E+00
  1    378  7.68864E+03  4.03000E+03  1.00000E+00  3.78871E+02  7.27700E+03  4.03000E+03  9.99000E-01    377   1     1     11  0.00000E+00
  1    378  7.66040E+03  4.03000E+03  1.00000E+00  6.83924E-01  7.65960E+03  4.03000E+03  9.99000E-01    377   1     1     11  0.00000E+00
