@ [ MODPATH Version 4.00 (V4, Release 1, 2-2000) [PC] (TREF=   0.183595E+06 ) ]
  1    5   19    1  1.85674E+03  3.46984E+03  3.01835E+02  1.00000E+00  6.46979E+03  4.01000E+03  4.01286E+03  7.14286E-02   14   14    1   3     6     11  0.00000E+00
  1    6   19    1  2.05923E+03  3.47715E+03  3.01436E+02  1.00000E+00  5.22317E+03  4.01000E+03  4.01286E+03  2.14286E-01   14   14    1   3     6     11  0.00000E+00
  1    6   19    1  2.26406E+03  3.48483E+03  3.01436E+02  1.00000E+00  4.08330E+03  4.01000E+03  4.01286E+03  3.57143E-01   14   14    1   3     6     11  0.00000E+00
  1    7   19    1  2.47118E+03  3.49243E+03  3.00956E+02  1.00000E+00  3.03130E+03  4.01000E+03  4.01286E+03  5.00000E-01   14   14    1   3     6     11  0.00000E+00
  1    7   18    1  2.68081E+03  3.50048E+03  3.00944E+02  1.00000E+00  2.05424E+03  4.01000E+03  4.01286E+03  6.42857E-01   14   14    1   3     6     11  0.00000E+00
  1    8   18    1  2.89422E+03  3.50871E+03  3.00380E+02  1.00000E+00  1.13984E+03  4.01000E+03  4.01286E+03  7.85714E-01   14   14    1   3     6     11  0.00000E+00
  1    9   18    1  3.43523E+03  3.69080E+03  2.91800E+02  1.00000E+00  3.39834E+02  4.01000E+03  4.01286E+03  9.28571E-01   14   14    1   3     6     61  0.00000E+00
  1    5   18    1  1.80571E+03  3.64399E+03  3.01827E+02  1.00000E+00  6.46883E+03  4.01000E+03  4.01857E+03  7.14286E-02   14   14    1   3     6     11  0.00000E+00
  1    6   18    1  2.00311E+03  3.64882E+03  3.01426E+02  1.00000E+00  5.22399E+03  4.01000E+03  4.01857E+03  2.14286E-01   14   14    1   3     6     11  0.00000E+00
  1    6   18    1  2.20303E+03  3.65424E+03  3.01426E+02  1.00000E+00  4.08659E+03  4.01000E+03  4.01857E+03  3.57143E-01   14   14    1   3     6     11  0.00000E+00
  1    7   18    1  2.40555E+03  3.65922E+03  3.00944E+02  1.00000E+00  3.03374E+03  4.01000E+03  4.01857E+03  5.00000E-01   14   14    1   3     6     11  0.00000E+00
  1    7   18    1  2.61079E+03  3.66492E+03  3.00944E+02  1.00000E+00  2.05702E+03  4.01000E+03  4.01857E+03  6.42857E-01   14   14    1   3     6     11  0.00000E+00
  1    8   18    1  2.81889E+03  3.67032E+03  3.00380E+02  1.00000E+00  1.14031E+03  4.01000E+03  4.01857E+03  7.85714E-01   14   14    1   3     6     11  0.00000E+00
  1    9   17    1  3.38105E+03  3.79921E+03  2.91451E+02  1.00000E+00  3.40749E+02  4.01000E+03  4.01857E+03  9.28571E-01   14   14    1   3     6     61  0.00000E+00
  1    5   17    1  1.77088E+03  3.83324E+03  3.01823E+02  1.00000E+00  6.46379E+03  4.01000E+03  4.02429E+03  7.14286E-02   14   14    1   3     6     11  0.00000E+00
  1    5   17    1  1.96450E+03  3.83572E+03  3.01823E+02  1.00000E+00  5.22149E+03  4.01000E+03  4.02429E+03  2.14286E-01   14   14    1   3     6     11  0.00000E+00
  1    6   17    1  2.16066E+03  3.83841E+03  3.01421E+02  1.00000E+00  4.08550E+03  4.01000E+03  4.02429E+03  3.57143E-01   14   14    1   3     6     11  0.00000E+00
  1    6   17    1  2.35951E+03  3.84097E+03  3.01421E+02  1.00000E+00  3.03404E+03  4.01000E+03  4.02429E+03  5.00000E-01   14   14    1   3     6     11  0.00000E+00
  1    7   17    1  2.56112E+03  3.84380E+03  3.00938E+02  1.00000E+00  2.05775E+03  4.01000E+03  4.02429E+03  6.42857E-01   14   14    1   3     6     11  0.00000E+00
  1    7   17    1  2.76575E+03  3.84654E+03  3.00938E+02  1.00000E+00  1.14123E+03  4.01000E+03  4.02429E+03  7.85714E-01   14   14    1   3     6     11  0.00000E+00
  1    9   16    1  3.33619E+03  3.91225E+03  2.91290E+02  1.00000E+00  3.41175E+02  4.01000E+03  4.02429E+03  9.28571E-01   14   14    1   3     6     61  0.00000E+00
  1    5   14    1  1.76008E+03  4.03017E+03  3.01821E+02  1.00000E+00  6.45534E+03  4.01000E+03  4.03000E+03  7.14286E-02   14   14    1   3     6     11  0.00000E+00
  1    5   14    1  1.95227E+03  4.03014E+03  3.01821E+02  1.00000E+00  5.21601E+03  4.01000E+03  4.03000E+03  2.14286E-01   14   14    1   3     6     11  0.00000E+00
  1    6   14    1  2.14702E+03  4.03010E+03  3.01419E+02  1.00000E+00  4.08209E+03  4.01000E+03  4.03000E+03  3.57143E-01   14   14    1   3     6     11  0.00000E+00
  1    6   14    1  2.34453E+03  4.03006E+03  3.01419E+02  1.00000E+00  3.03248E+03  4.01000E+03  4.03000E+03  5.00000E-01   14   14    1   3     6     11  0.00000E+00
  1    7   14    1  2.54484E+03  4.03003E+03  3.00935E+02  1.00000E+00  2.05725E+03  4.01000E+03  4.03000E+03  6.42857E-01   14   14    1   3     6     11  0.00000E+00
  1    7   14    1  2.74825E+03  4.03000E+03  3.00935E+02  1.00000E+00  1.14176E+03  4.01000E+03  4.03000E+03  7.85714E-01   14   14    1   3     6     11  0.00000E+00
  1    9   14    1  3.31750E+03  4.03000E+03  2.91234E+02  1.00000E+00  3.41371E+02  4.01000E+03  4.03000E+03  9.28571E-01   14   14    1   3     6     61  0.00000E+00
  1    5   11    1  1.77089E+03  4.22708E+03  3.01823E+02  1.00000E+00  6.46377E+03  4.01000E+03  4.03571E+03  7.14286E-02   14   14    1   3     6     11  0.00000E+00
  1    5   11    1  1.96451E+03  4.22453E+03  3.01823E+02  1.00000E+00  5.22148E+03  4.01000E+03  4.03571E+03  2.14286E-01   14   14    1   3     6     11  0.00000E+00
  1    6   11    1  2.16066E+03  4.22177E+03  3.01422E+02  1.00000E+00  4.08549E+03  4.01000E+03  4.03571E+03  3.57143E-01   14   14    1   3     6     11  0.00000E+00
  1    6   11    1  2.35951E+03  4.21915E+03  3.01422E+02  1.00000E+00  3.03404E+03  4.01000E+03  4.03571E+03  5.00000E-01   14   14    1   3     6     11  0.00000E+00
  1    7   11    1  2.56112E+03  4.21626E+03  3.00938E+02  1.00000E+00  2.05775E+03  4.01000E+03  4.03571E+03  6.42857E-01   14   14    1   3     6     11  0.00000E+00
  1    7   11    1  2.76575E+03  4.21346E+03  3.00938E+02  1.00000E+00  1.14123E+03  4.01000E+03  4.03571E+03  7.85714E-01   14   14    1   3     6     11  0.00000E+00
  1    9   12    1  3.33618E+03  4.14775E+03  2.91290E+02  1.00000E+00  3.41179E+02  4.01000E+03  4.03571E+03  9.28571E-01   14   14    1   3     6     61  0.00000E+00
  1    5   10    1  1.80572E+03  4.41631E+03  3.01827E+02  1.00000E+00  6.46880E+03  4.01000E+03  4.04143E+03  7.14286E-02   14   14    1   3     6     11  0.00000E+00
  1    6   10    1  2.00312E+03  4.41141E+03  3.01426E+02  1.00000E+00  5.22397E+03  4.01000E+03  4.04143E+03  2.14286E-01   14   14    1   3     6     11  0.00000E+00
  1    6   10    1  2.20304E+03  4.40593E+03  3.01426E+02  1.00000E+00  4.08659E+03  4.01000E+03  4.04143E+03  3.57143E-01   14   14    1   3     6     11  0.00000E+00
  1    7   10    1  2.40555E+03  4.40089E+03  3.00944E+02  1.00000E+00  3.03374E+03  4.01000E+03  4.04143E+03  5.00000E-01   14   14    1   3     6     11  0.00000E+00
  1    7   10    1  2.61079E+03  4.39513E+03  3.00944E+02  1.00000E+00  2.05702E+03  4.01000E+03  4.04143E+03  6.42857E-01   14   14    1   3     6     11  0.00000E+00
  1    8   10    1  2.81889E+03  4.38969E+03  3.00381E+02  1.00000E+00  1.14031E+03  4.01000E+03  4.04143E+03  7.85714E-01   14   14    1   3     6     11  0.00000E+00
  1    9   11    1  3.38105E+03  4.26079E+03  2.91451E+02  1.00000E+00  3.40746E+02  4.01000E+03  4.04143E+03  9.28571E-01   14   14    1   3     6     61  0.00000E+00
  1    5    9    1  1.85674E+03  4.59041E+03  3.01835E+02  1.00000E+00  6.46982E+03  4.01000E+03  4.04714E+03  7.14286E-02   14   14    1   3     6     11  0.00000E+00
  1    6    9    1  2.05923E+03  4.58304E+03  3.01436E+02  1.00000E+00  5.22319E+03  4.01000E+03  4.04714E+03  2.14286E-01   14   14    1   3     6     11  0.00000E+00
  1    6    9    1  2.26406E+03  4.57530E+03  3.01436E+02  1.00000E+00  4.08332E+03  4.01000E+03  4.04714E+03  3.57143E-01   14   14    1   3     6     11  0.00000E+00
  1    7    9    1  2.47118E+03  4.56766E+03  3.00956E+02  1.00000E+00  3.03130E+03  4.01000E+03  4.04714E+03  5.00000E-01   14   14    1   3     6     11  0.00000E+00
  1    7   10    1  2.68081E+03  4.55956E+03  3.00944E+02  1.00000E+00  2.05425E+03  4.01000E+03  4.04714E+03  6.42857E-01   14   14    1   3     6     11  0.00000E+00
  1    8   10    1  2.89422E+03  4.55128E+03  3.00381E+02  1.00000E+00  1.13984E+03  4.01000E+03  4.04714E+03  7.85714E-01   14   14    1   3     6     11  0.00000E+00
  1    9   10    1  3.43522E+03  4.36919E+03  2.91800E+02  1.00000E+00  3.39837E+02  4.01000E+03  4.04714E+03  9.28571E-01   14   14    1   3     6     61  0.00000E+00
  1    7   20    1  2.77195E+03  3.04763E+03  3.00981E+02  1.00000E+00  6.61510E+03  4.05000E+03  4.01286E+03  7.14286E-02   14   14    1   3     6     11  0.00000E+00
  1    8   20    1  3.08552E+03  3.06759E+03  3.00426E+02  1.00000E+00  5.31704E+03  4.05000E+03  4.01286E+03  2.14286E-01   14   14    1   3     6     11  0.00000E+00
  1    9   20    1  3.40228E+03  3.08769E+03  2.99872E+02  1.00000E+00  4.13232E+03  4.05000E+03  4.01286E+03  3.57143E-01   14   14    1   3     6     11  0.00000E+00
  1   11   20    1  3.72194E+03  3.10806E+03  2.99118E+02  1.00000E+00  3.04392E+03  4.05000E+03  4.01286E+03  5.00000E-01   14   14    1   3     6     11  0.00000E+00
  1   14   20    1  4.04417E+03  3.12804E+03  2.98623E+02  1.00000E+00  2.04062E+03  4.05000E+03  4.01286E+03  6.42857E-01   14   14    1   3     6     11  0.00000E+00
  1   18   20    1  4.36875E+03  3.14640E+03  2.97710E+02  1.00000E+00  1.11533E+03  4.05000E+03  4.01286E+03  7.85714E-01   14   14    1   3     6     11  0.00000E+00
  1   18   18    1  4.38484E+03  3.57080E+03  2.88951E+02  1.00000E+00  3.33125E+02  4.05000E+03  4.01286E+03  9.28571E-01   14   14    1   3     6     61  0.00000E+00
  1    8   19    1  2.93649E+03  3.28203E+03  3.00396E+02  1.00000E+00  6.48378E+03  4.05000E+03  4.01857E+03  7.14286E-02   14   14    1   3     6     11  0.00000E+00
  1    9   19    1  3.25638E+03  3.29889E+03  2.99837E+02  1.00000E+00  5.24134E+03  4.05000E+03  4.01857E+03  2.14286E-01   14   14    1   3     6     11  0.00000E+00
  1   10   19    1  3.58204E+03  3.31671E+03  2.99401E+02  1.00000E+00  4.09491E+03  4.05000E+03  4.01857E+03  3.57143E-01   14   14    1   3     6     11  0.00000E+00
  1   12   19    1  3.91346E+03  3.33467E+03  2.98839E+02  1.00000E+00  3.02837E+03  4.05000E+03  4.01857E+03  5.00000E-01   14   14    1   3     6     11  0.00000E+00
  1   17   19    1  4.25044E+03  3.35171E+03  2.98054E+02  1.00000E+00  2.03424E+03  4.05000E+03  4.01857E+03  6.42857E-01   14   14    1   3     6     11  0.00000E+00
  1   19   19    1  4.59271E+03  3.36658E+03  2.97092E+02  1.00000E+00  1.11172E+03  4.05000E+03  4.01857E+03  7.85714E-01   14   14    1   3     6     11  0.00000E+00
  1   18   17    1  4.50379E+03  3.70240E+03  2.88234E+02  1.00000E+00  3.32320E+02  4.05000E+03  4.01857E+03  9.28571E-01   14   14    1   3     6     61  0.00000E+00
  1    8   18    1  3.07172E+03  3.57954E+03  3.00380E+02  1.00000E+00  6.41934E+03  4.05000E+03  4.02429E+03  7.14286E-02   14   14    1   3     6     11  0.00000E+00
  1    9   18    1  3.39860E+03  3.59132E+03  2.99818E+02  1.00000E+00  5.21025E+03  4.05000E+03  4.02429E+03  2.14286E-01   14   14    1   3     6     11  0.00000E+00
  1   11   18    1  3.73354E+03  3.60376E+03  2.99057E+02  1.00000E+00  4.08277E+03  4.05000E+03  4.02429E+03  3.57143E-01   14   14    1   3     6     11  0.00000E+00
  1   15   18    1  4.07693E+03  3.61635E+03  2.98459E+02  1.00000E+00  3.02371E+03  4.05000E+03  4.02429E+03  5.00000E-01   14   14    1   3     6     11  0.00000E+00
  1   18   18    1  4.42871E+03  3.62778E+03  2.97650E+02  1.00000E+00  2.02996E+03  4.05000E+03  4.02429E+03  6.42857E-01   14   14    1   3     6     11  0.00000E+00
  1   19   18    1  4.78824E+03  3.63709E+03  2.97073E+02  1.00000E+00  1.10794E+03  4.05000E+03  4.02429E+03  7.85714E-01   14   14    1   3     6     11  0.00000E+00
  1   19   16    1  4.58025E+03  3.85054E+03  2.88911E+02  1.00000E+00  3.31927E+02  4.05000E+03  4.02429E+03  9.28571E-01   14   14    1   3     6     61  0.00000E+00
  1    8   14    1  3.14395E+03  4.03012E+03  3.00370E+02  1.00000E+00  6.33791E+03  4.05000E+03  4.03000E+03  7.14286E-02   14   14    1   3     6     11  0.00000E+00
  1    9   14    1  3.46852E+03  4.03007E+03  2.99805E+02  1.00000E+00  5.16733E+03  4.05000E+03  4.03000E+03  2.14286E-01   14   14    1   3     6     11  0.00000E+00
  1   11   14    1  3.80309E+03  4.03003E+03  2.99042E+02  1.00000E+00  4.06563E+03  4.05000E+03  4.03000E+03  3.57143E-01   14   14    1   3     6     11  0.00000E+00
  1   16   14    1  4.14882E+03  4.03000E+03  2.98279E+02  1.00000E+00  3.01875E+03  4.05000E+03  4.03000E+03  5.00000E-01   14   14    1   3     6     11  0.00000E+00
  1   18   14    1  4.50577E+03  4.02999E+03  2.97635E+02  1.00000E+00  2.02786E+03  4.05000E+03  4.03000E+03  6.42857E-01   14   14    1   3     6     11  0.00000E+00
  1   20   14    1  4.87258E+03  4.02999E+03  2.96180E+02  1.00000E+00  1.10596E+03  4.05000E+03  4.03000E+03  7.85714E-01   14   14    1   3     6     11  0.00000E+00
  1   19   14    1  4.61017E+03  4.03000E+03  2.88853E+02  1.00000E+00  3.32279E+02  4.05000E+03  4.03000E+03  9.28571E-01   14   14    1   3     6     61  0.00000E+00
  1    8   10    1  3.07167E+03  4.48062E+03  3.00381E+02  1.00000E+00  6.41934E+03  4.05000E+03  4.03571E+03  7.14286E-02   14   14    1   3     6     11  0.00000E+00
  1    9   10    1  3.39854E+03  4.46878E+03  2.99819E+02  1.00000E+00  5.21026E+03  4.05000E+03  4.03571E+03  2.14286E-01   14   14    1   3     6     11  0.00000E+00
  1   11   10    1  3.73348E+03  4.45629E+03  2.99057E+02  1.00000E+00  4.08277E+03  4.05000E+03  4.03571E+03  3.57143E-01   14   14    1   3     6     11  0.00000E+00
  1   15   10    1  4.07690E+03  4.44366E+03  2.98459E+02  1.00000E+00  3.02371E+03  4.05000E+03  4.03571E+03  5.00000E-01   14   14    1   3     6     11  0.00000E+00
  1   18   10    1  4.42870E+03  4.43221E+03  2.97650E+02  1.00000E+00  2.02996E+03  4.05000E+03  4.03571E+03  6.42857E-01   14   14    1   3     6     11  0.00000E+00
  1   19   10    1  4.78825E+03  4.42289E+03  2.97073E+02  1.00000E+00  1.10793E+03  4.05000E+03  4.03571E+03  7.85714E-01   14   14    1   3     6     11  0.00000E+00
  1   19   12    1  4.58025E+03  4.20946E+03  2.88911E+02  1.00000E+00  3.31926E+02  4.05000E+03  4.03571E+03  9.28571E-01   14   14    1   3     6     61  0.00000E+00
  1    8    9    1  2.93643E+03  4.77807E+03  3.00396E+02  1.00000E+00  6.48378E+03  4.05000E+03  4.04143E+03  7.14286E-02   14   14    1   3     6     11  0.00000E+00
  1    9    9    1  3.25631E+03  4.76116E+03  2.99837E+02  1.00000E+00  5.24135E+03  4.05000E+03  4.04143E+03  2.14286E-01   14   14    1   3     6     11  0.00000E+00
  1   10    9    1  3.58198E+03  4.74331E+03  2.99401E+02  1.00000E+00  4.09492E+03  4.05000E+03  4.04143E+03  3.57143E-01   14   14    1   3     6     11  0.00000E+00
  1   12    9    1  3.91342E+03  4.72533E+03  2.98839E+02  1.00000E+00  3.02837E+03  4.05000E+03  4.04143E+03  5.00000E-01   14   14    1   3     6     11  0.00000E+00
  1   17    9    1  4.25043E+03  4.70827E+03  2.98054E+02  1.00000E+00  2.03424E+03  4.05000E+03  4.04143E+03  6.42857E-01   14   14    1   3     6     11  0.00000E+00
  1   19    9    1  4.59274E+03  4.69339E+03  2.97092E+02  1.00000E+00  1.11172E+03  4.05000E+03  4.04143E+03  7.85714E-01   14   14    1   3     6     11  0.00000E+00
  1   18   11    1  4.50380E+03  4.35758E+03  2.88234E+02  1.00000E+00  3.32320E+02  4.05000E+03  4.04143E+03  9.28571E-01   14   14    1   3     6     61  0.00000E+00
  1    7    8    1  2.77187E+03  5.01248E+03  3.00981E+02  1.00000E+00  6.61510E+03  4.05000E+03  4.04714E+03  7.14286E-02   14   14    1   3     6     11  0.00000E+00
  1    8    8    1  3.08544E+03  4.99248E+03  3.00427E+02  1.00000E+00  5.31703E+03  4.05000E+03  4.04714E+03  2.14286E-01   14   14    1   3     6     11  0.00000E+00
  1    9    8    1  3.40220E+03  4.97235E+03  2.99872E+02  1.00000E+00  4.13232E+03  4.05000E+03  4.04714E+03  3.57143E-01   14   14    1   3     6     11  0.00000E+00
  1   11    8    1  3.72188E+03  4.95196E+03  2.99119E+02  1.00000E+00  3.04394E+03  4.05000E+03  4.04714E+03  5.00000E-01   14   14    1   3     6     11  0.00000E+00
  1   14    8    1  4.04415E+03  4.93197E+03  2.98623E+02  1.00000E+00  2.04062E+03  4.05000E+03  4.04714E+03  6.42857E-01   14   14    1   3     6     11  0.00000E+00
  1   18    8    1  4.36876E+03  4.91360E+03  2.97710E+02  1.00000E+00  1.11533E+03  4.05000E+03  4.04714E+03  7.85714E-01   14   14    1   3     6     11  0.00000E+00
  1   18   10    1  4.38484E+03  4.48920E+03  2.88951E+02  1.00000E+00  3.33124E+02  4.05000E+03  4.04714E+03  9.28571E-01   14   14    1   3     6     61  0.00000E+00
  1    5   19    1  1.93455E+03  3.30758E+03  3.01835E+02  1.00000E+00  6.46814E+03  4.01286E+03  4.01000E+03  7.14286E-02   14   14    1   3     6     11  0.00000E+00
  1    6   19    1  2.14542E+03  3.31744E+03  3.01436E+02  1.00000E+00  5.22381E+03  4.01286E+03  4.01000E+03  2.14286E-01   14   14    1   3     6     11  0.00000E+00
  1    6   19    1  2.35882E+03  3.32695E+03  3.01436E+02  1.00000E+00  4.08311E+03  4.01286E+03  4.01000E+03  3.57143E-01   14   14    1   3     6     11  0.00000E+00
  1    7   19    1  2.57472E+03  3.33728E+03  3.00956E+02  1.00000E+00  3.03224E+03  4.01286E+03  4.01000E+03  5.00000E-01   14   14    1   3     6     11  0.00000E+00
  1    7   19    1  2.79327E+03  3.34718E+03  3.00956E+02  1.00000E+00  2.05293E+03  4.01286E+03  4.01000E+03  6.42857E-01   14   14    1   3     6     11  0.00000E+00
  1    8   19    1  3.01452E+03  3.35836E+03  3.00396E+02  1.00000E+00  1.13937E+03  4.01286E+03  4.01000E+03  7.85714E-01   14   14    1   3     6     11  0.00000E+00
  1   10   18    1  3.52528E+03  3.59322E+03  2.90462E+02  1.00000E+00  3.39061E+02  4.01286E+03  4.01000E+03  9.28571E-01   14   14    1   3     6     61  0.00000E+00
  1    6   20    1  2.00638E+03  3.15272E+03  3.01456E+02  1.00000E+00  6.49448E+03  4.01857E+03  4.01000E+03  7.14286E-02   14   14    1   3     6     11  0.00000E+00
  1    6   20    1  2.22553E+03  3.16511E+03  3.01456E+02  1.00000E+00  5.23686E+03  4.01857E+03  4.01000E+03  2.14286E-01   14   14    1   3     6     11  0.00000E+00
  1    7   20    1  2.44651E+03  3.17687E+03  3.00981E+02  1.00000E+00  4.08737E+03  4.01857E+03  4.01000E+03  3.57143E-01   14   14    1   3     6     11  0.00000E+00
  1    7   20    1  2.66930E+03  3.18949E+03  3.00981E+02  1.00000E+00  3.03104E+03  4.01857E+03  4.01000E+03  5.00000E-01   14   14    1   3     6     11  0.00000E+00
  1    8   19    1  2.89422E+03  3.20215E+03  3.00396E+02  1.00000E+00  2.05180E+03  4.01857E+03  4.01000E+03  6.42857E-01   14   14    1   3     6     11  0.00000E+00
  1    8   19    1  3.12349E+03  3.21528E+03  3.00396E+02  1.00000E+00  1.13632E+03  4.01857E+03  4.01000E+03  7.85714E-01   14   14    1   3     6     11  0.00000E+00
  1   10   18    1  3.60326E+03  3.51137E+03  2.90462E+02  1.00000E+00  3.38607E+02  4.01857E+03  4.01000E+03  9.28571E-01   14   14    1   3     6     61  0.00000E+00
  1    6   20    1  2.10866E+03  3.02812E+03  3.01456E+02  1.00000E+00  6.52087E+03  4.02429E+03  4.01000E+03  7.14286E-02   14   14    1   3     6     11  0.00000E+00
  1    6   20    1  2.34048E+03  3.04169E+03  3.01456E+02  1.00000E+00  5.25415E+03  4.02429E+03  4.01000E+03  2.14286E-01   14   14    1   3     6     11  0.00000E+00
  1    7   20    1  2.57430E+03  3.05595E+03  3.00981E+02  1.00000E+00  4.09991E+03  4.02429E+03  4.01000E+03  3.57143E-01   14   14    1   3     6     11  0.00000E+00
  1    8   20    1  2.81013E+03  3.06977E+03  3.00426E+02  1.00000E+00  3.03599E+03  4.02429E+03  4.01000E+03  5.00000E-01   14   14    1   3     6     11  0.00000E+00
  1    8   20    1  3.04787E+03  3.08498E+03  3.00426E+02  1.00000E+00  2.05290E+03  4.02429E+03  4.01000E+03  6.42857E-01   14   14    1   3     6     11  0.00000E+00
  1    9   20    1  3.28748E+03  3.09985E+03  2.99872E+02  1.00000E+00  1.13514E+03  4.02429E+03  4.01000E+03  7.85714E-01   14   14    1   3     6     11  0.00000E+00
  1   11   19    1  3.71956E+03  3.44018E+03  2.90816E+02  1.00000E+00  3.38238E+02  4.02429E+03  4.01000E+03  9.28571E-01   14   14    1   3     6     61  0.00000E+00
  1    6   20    1  2.22125E+03  2.92135E+03  3.01456E+02  1.00000E+00  6.51073E+03  4.03000E+03  4.01000E+03  7.14286E-02   14   14    1   3     6     11  0.00000E+00
  1    7   20    1  2.46494E+03  2.93661E+03  3.00981E+02  1.00000E+00  5.24704E+03  4.03000E+03  4.01000E+03  2.14286E-01   14   14    1   3     6     11  0.00000E+00
  1    7   20    1  2.71084E+03  2.95251E+03  3.00981E+02  1.00000E+00  4.09408E+03  4.03000E+03  4.01000E+03  3.57143E-01   14   14    1   3     6     11  0.00000E+00
  1    8   20    1  2.95887E+03  2.96886E+03  3.00426E+02  1.00000E+00  3.03343E+03  4.03000E+03  4.01000E+03  5.00000E-01   14   14    1   3     6     11  0.00000E+00
  1    9   20    1  3.20897E+03  2.98499E+03  2.99872E+02  1.00000E+00  2.04867E+03  4.03000E+03  4.01000E+03  6.42857E-01   14   14    1   3     6     11  0.00000E+00
  1    9   20    1  3.46101E+03  3.00197E+03  2.99872E+02  1.00000E+00  1.13271E+03  4.03000E+03  4.01000E+03  7.85714E-01   14   14    1   3     6     11  0.00000E+00
  1   11   19    1  3.84294E+03  3.39282E+03  2.90816E+02  1.00000E+00  3.37962E+02  4.03000E+03  4.01000E+03  9.28571E-01   14   14    1   3     6     61  0.00000E+00
  1    6   20    1  2.34497E+03  2.85582E+03  3.01456E+02  1.00000E+00  6.50936E+03  4.03571E+03  4.01000E+03  7.14286E-02   14   14    1   3     6     11  0.00000E+00
  1    7   20    1  2.60236E+03  2.87330E+03  3.00981E+02  1.00000E+00  5.24696E+03  4.03571E+03  4.01000E+03  2.14286E-01   14   14    1   3     6     11  0.00000E+00
  1    8   20    1  2.86215E+03  2.89052E+03  3.00426E+02  1.00000E+00  4.09281E+03  4.03571E+03  4.01000E+03  3.57143E-01   14   14    1   3     6     11  0.00000E+00
  1    8   20    1  3.12427E+03  2.90851E+03  3.00426E+02  1.00000E+00  3.03084E+03  4.03571E+03  4.01000E+03  5.00000E-01   14   14    1   3     6     11  0.00000E+00
  1    9   20    1  3.38859E+03  2.92667E+03  2.99872E+02  1.00000E+00  2.04661E+03  4.03571E+03  4.01000E+03  6.42857E-01   14   14    1   3     6     11  0.00000E+00
  1   10   20    1  3.65493E+03  2.94483E+03  2.99439E+02  1.00000E+00  1.12944E+03  4.03571E+03  4.01000E+03  7.85714E-01   14   14    1   3     6     11  0.00000E+00
  1   13   19    1  3.97778E+03  3.38114E+03  2.90263E+02  1.00000E+00  3.37031E+02  4.03571E+03  4.01000E+03  9.28571E-01   14   14    1   3     6     61  0.00000E+00
  1    7   20    1  2.48288E+03  2.84423E+03  3.00981E+02  1.00000E+00  6.52385E+03  4.04143E+03  4.01000E+03  7.14286E-02   14   14    1   3     6     11  0.00000E+00
  1    7   20    1  2.75658E+03  2.86263E+03  3.00981E+02  1.00000E+00  5.25540E+03  4.04143E+03  4.01000E+03  2.14286E-01   14   14    1   3     6     11  0.00000E+00
  1    8   20    1  3.03291E+03  2.88194E+03  3.00426E+02  1.00000E+00  4.09845E+03  4.04143E+03  4.01000E+03  3.57143E-01   14   14    1   3     6     11  0.00000E+00
  1    9   20    1  3.31176E+03  2.90106E+03  2.99872E+02  1.00000E+00  3.03191E+03  4.04143E+03  4.01000E+03  5.00000E-01   14   14    1   3     6     11  0.00000E+00
  1   10   20    1  3.59292E+03  2.92048E+03  2.99439E+02  1.00000E+00  2.04414E+03  4.04143E+03  4.01000E+03  6.42857E-01   14   14    1   3     6     11  0.00000E+00
  1   12   20    1  3.87620E+03  2.93966E+03  2.98880E+02  1.00000E+00  1.12541E+03  4.04143E+03  4.01000E+03  7.85714E-01   14   14    1   3     6     11  0.00000E+00
  1   16   19    1  4.11992E+03  3.41333E+03  2.89995E+02  1.00000E+00  3.35590E+02  4.04143E+03  4.01000E+03  9.28571E-01   14   14    1   3     6     61  0.00000E+00
  1    7   20    1  2.62861E+03  2.90655E+03  3.00981E+02  1.00000E+00  6.55761E+03  4.04714E+03  4.01000E+03  7.14286E-02   14   14    1   3     6     11  0.00000E+00
  1    8   20    1  2.92112E+03  2.92590E+03  3.00426E+02  1.00000E+00  5.27854E+03  4.04714E+03  4.01000E+03  2.14286E-01   14   14    1   3     6     11  0.00000E+00
  1    9   20    1  3.21653E+03  2.94549E+03  2.99872E+02  1.00000E+00  4.10987E+03  4.04714E+03  4.01000E+03  3.57143E-01   14   14    1   3     6     11  0.00000E+00
  1   10   20    1  3.51465E+03  2.96581E+03  2.99439E+02  1.00000E+00  3.03575E+03  4.04714E+03  4.01000E+03  5.00000E-01   14   14    1   3     6     11  0.00000E+00
  1   11   20    1  3.81521E+03  2.98601E+03  2.99118E+02  1.00000E+00  2.04228E+03  4.04714E+03  4.01000E+03  6.42857E-01   14   14    1   3     6     11  0.00000E+00
  1   16   20    1  4.11796E+03  3.00532E+03  2.98358E+02  1.00000E+00  1.12078E+03  4.04714E+03  4.01000E+03  7.85714E-01   14   14    1   3     6     11  0.00000E+00
  1   17   19    1  4.26523E+03  3.48411E+03  2.89928E+02  1.00000E+00  3.33947E+02  4.04714E+03  4.01000E+03  9.28571E-01   14   14    1   3     6     61  0.00000E+00
  1    5    9    1  1.93456E+03  4.75265E+03  3.01835E+02  1.00000E+00  6.46810E+03  4.01286E+03  4.05000E+03  7.14286E-02   14   14    1   3     6     11  0.00000E+00
  1    6    9    1  2.14543E+03  4.74274E+03  3.01436E+02  1.00000E+00  5.22379E+03  4.01286E+03  4.05000E+03  2.14286E-01   14   14    1   3     6     11  0.00000E+00
  1    6    9    1  2.35882E+03  4.73318E+03  3.01436E+02  1.00000E+00  4.08310E+03  4.01286E+03  4.05000E+03  3.57143E-01   14   14    1   3     6     11  0.00000E+00
  1    7    9    1  2.57472E+03  4.72280E+03  3.00956E+02  1.00000E+00  3.03225E+03  4.01286E+03  4.05000E+03  5.00000E-01   14   14    1   3     6     11  0.00000E+00
  1    7    9    1  2.79327E+03  4.71286E+03  3.00956E+02  1.00000E+00  2.05293E+03  4.01286E+03  4.05000E+03  6.42857E-01   14   14    1   3     6     11  0.00000E+00
  1    8    9    1  3.01451E+03  4.70165E+03  3.00396E+02  1.00000E+00  1.13938E+03  4.01286E+03  4.05000E+03  7.85714E-01   14   14    1   3     6     11  0.00000E+00
  1   10   10    1  3.52528E+03  4.46678E+03  2.90462E+02  1.00000E+00  3.39064E+02  4.01286E+03  4.05000E+03  9.28571E-01   14   14    1   3     6     61  0.00000E+00
  1    6    8    1  2.00637E+03  4.90748E+03  3.01456E+02  1.00000E+00  6.49451E+03  4.01857E+03  4.05000E+03  7.14286E-02   14   14    1   3     6     11  0.00000E+00
  1    6    8    1  2.22552E+03  4.89504E+03  3.01456E+02  1.00000E+00  5.23689E+03  4.01857E+03  4.05000E+03  2.14286E-01   14   14    1   3     6     11  0.00000E+00
  1    7    8    1  2.44650E+03  4.88324E+03  3.00981E+02  1.00000E+00  4.08739E+03  4.01857E+03  4.05000E+03  3.57143E-01   14   14    1   3     6     11  0.00000E+00
  1    7    8    1  2.66930E+03  4.87058E+03  3.00981E+02  1.00000E+00  3.03106E+03  4.01857E+03  4.05000E+03  5.00000E-01   14   14    1   3     6     11  0.00000E+00
  1    8    9    1  2.89421E+03  4.85788E+03  3.00396E+02  1.00000E+00  2.05180E+03  4.01857E+03  4.05000E+03  6.42857E-01   14   14    1   3     6     11  0.00000E+00
  1    8    9    1  3.12348E+03  4.84472E+03  3.00396E+02  1.00000E+00  1.13632E+03  4.01857E+03  4.05000E+03  7.85714E-01   14   14    1   3     6     11  0.00000E+00
  1   10   10    1  3.60326E+03  4.54863E+03  2.90462E+02  1.00000E+00  3.38606E+02  4.01857E+03  4.05000E+03  9.28571E-01   14   14    1   3     6     61  0.00000E+00
  1    6    8    1  2.10865E+03  5.03205E+03  3.01456E+02  1.00000E+00  6.52083E+03  4.02429E+03  4.05000E+03  7.14286E-02   14   14    1   3     6     11  0.00000E+00
  1    6    8    1  2.34046E+03  5.01844E+03  3.01456E+02  1.00000E+00  5.25414E+03  4.02429E+03  4.05000E+03  2.14286E-01   14   14    1   3     6     11  0.00000E+00
  1    7    8    1  2.57428E+03  5.00413E+03  3.00981E+02  1.00000E+00  4.09990E+03  4.02429E+03  4.05000E+03  3.57143E-01   14   14    1   3     6     11  0.00000E+00
  1    8    8    1  2.81010E+03  4.99028E+03  3.00427E+02  1.00000E+00  3.03601E+03  4.02429E+03  4.05000E+03  5.00000E-01   14   14    1   3     6     11  0.00000E+00
  1    8    8    1  3.04786E+03  4.97504E+03  3.00427E+02  1.00000E+00  2.05289E+03  4.02429E+03  4.05000E+03  6.42857E-01   14   14    1   3     6     11  0.00000E+00
  1    9    8    1  3.28747E+03  4.96015E+03  2.99872E+02  1.00000E+00  1.13513E+03  4.02429E+03  4.05000E+03  7.85714E-01   14   14    1   3     6     11  0.00000E+00
  1   11    9    1  3.71956E+03  4.61982E+03  2.90816E+02  1.00000E+00  3.38238E+02  4.02429E+03  4.05000E+03  9.28571E-01   14   14    1   3     6     61  0.00000E+00
  1    6    8    1  2.22124E+03  5.13879E+03  3.01456E+02  1.00000E+00  6.51070E+03  4.03000E+03  4.05000E+03  7.14286E-02   14   14    1   3     6     11  0.00000E+00
  1    7    8    1  2.46492E+03  5.12349E+03  3.00981E+02  1.00000E+00  5.24702E+03  4.03000E+03  4.05000E+03  2.14286E-01   14   14    1   3     6     11  0.00000E+00
  1    7    8    1  2.71081E+03  5.10755E+03  3.00981E+02  1.00000E+00  4.09408E+03  4.03000E+03  4.05000E+03  3.57143E-01   14   14    1   3     6     11  0.00000E+00
  1    8    8    1  2.95884E+03  5.09118E+03  3.00427E+02  1.00000E+00  3.03344E+03  4.03000E+03  4.05000E+03  5.00000E-01   14   14    1   3     6     11  0.00000E+00
  1    9    8    1  3.20895E+03  5.07503E+03  2.99872E+02  1.00000E+00  2.04867E+03  4.03000E+03  4.05000E+03  6.42857E-01   14   14    1   3     6     11  0.00000E+00
  1    9    8    1  3.46101E+03  5.05803E+03  2.99872E+02  1.00000E+00  1.13272E+03  4.03000E+03  4.05000E+03  7.85714E-01   14   14    1   3     6     11  0.00000E+00
  1   11    9    1  3.84294E+03  4.66718E+03  2.90816E+02  1.00000E+00  3.37960E+02  4.03000E+03  4.05000E+03  9.28571E-01   14   14    1   3     6     61  0.00000E+00
  1    6    8    1  2.34494E+03  5.20430E+03  3.01456E+02  1.00000E+00  6.50933E+03  4.03571E+03  4.05000E+03  7.14286E-02   14   14    1   3     6     11  0.00000E+00
  1    7    8    1  2.60233E+03  5.18678E+03  3.00981E+02  1.00000E+00  5.24695E+03  4.03571E+03  4.05000E+03  2.14286E-01   14   14    1   3     6     11  0.00000E+00