@ [ MODPATH Version 3.00 (V3, Release 2, 6-2000)(COMPACT)(TREF=   0.000000E+00 ) ]
  1    541  1.12186E+02  2.59214E+03  1.00000E+00  6.55485E+04  4.01000E+03  4.01286E+03  7.14286E-02   2552   2     1     11  0.00000E+00
  1    541  3.29732E+02  2.68048E+03  1.00000E+00  4.36501E+04  4.01000E+03  4.01286E+03  2.14286E-01   2552   2     1     11  0.00000E+00
  1    542  5.56126E+02  2.78730E+03  1.00000E+00  3.25226E+04  4.01000E+03  4.01286E+03  3.57143E-01   2552   2     1     11  0.00000E+00
  1    515  7.99194E+02  2.91686E+03  1.00000E+00  2.54321E+04  4.01000E+03  4.01286E+03  5.00000E-01   2552   2     1     11  0.00000E+00
  1    516  1.04941E+03  3.07919E+03  1.00000E+00  2.02839E+04  4.01000E+03  4.01286E+03  6.42857E-01   2552   2     1     11  0.00000E+00
  1    490  1.34051E+03  3.28395E+03  1.00000E+00  1.60281E+04  4.01000E+03  4.01286E+03  7.85714E-01   2552   2     1     11  0.00000E+00
  1    464  1.72392E+03  3.57590E+03  1.00000E+00  1.23310E+04  4.01000E+03  4.01286E+03  9.28571E-01   2552   2     1     11  0.00000E+00
  1    514  9.74507E+01  3.02219E+03  1.00000E+00  6.48079E+04  4.01000E+03  4.01857E+03  7.14286E-02   2552   2     1     11  0.00000E+00
  1    514  2.96535E+02  3.09805E+03  1.00000E+00  4.29577E+04  4.01000E+03  4.01857E+03  2.14286E-01   2552   2     1     11  0.00000E+00
  1    515  5.02677E+02  3.16275E+03  1.00000E+00  3.23171E+04  4.01000E+03  4.01857E+03  3.57143E-01   2552   2     1     11  0.00000E+00
  1    488  7.30286E+02  3.25664E+03  1.00000E+00  2.53668E+04  4.01000E+03  4.01857E+03  5.00000E-01   2552   2     1     11  0.00000E+00
  1    489  9.84231E+02  3.35913E+03  1.00000E+00  2.02900E+04  4.01000E+03  4.01857E+03  6.42857E-01   2552   2     1     11  0.00000E+00
  1    463  1.27429E+03  3.51239E+03  1.00000E+00  1.60806E+04  4.01000E+03  4.01857E+03  7.85714E-01   2552   2     1     11  0.00000E+00
  1    437  1.67319E+03  3.72013E+03  1.00000E+00  1.23702E+04  4.01000E+03  4.01857E+03  9.28571E-01   2552   2     1     11  0.00000E+00
  1    460  9.18553E+01  3.54056E+03  1.00000E+00  6.32090E+04  4.01000E+03  4.02429E+03  7.14286E-02   2552   2     1     11  0.00000E+00
  1    460  2.75442E+02  3.54890E+03  1.00000E+00  4.23780E+04  4.01000E+03  4.02429E+03  2.14286E-01   2552   2     1     11  0.00000E+00
  1    461  4.69735E+02  3.57840E+03  1.00000E+00  3.21522E+04  4.01000E+03  4.02429E+03  3.57143E-01   2552   2     1     11  0.00000E+00
  1    461  6.84166E+02  3.62709E+03  1.00000E+00  2.54240E+04  4.01000E+03  4.02429E+03  5.00000E-01   2552   2     1     11  0.00000E+00
  1    462  9.26116E+02  3.68410E+03  1.00000E+00  2.04103E+04  4.01000E+03  4.02429E+03  6.42857E-01   2552   2     1     11  0.00000E+00
  1    436  1.21559E+03  3.76204E+03  1.00000E+00  1.63406E+04  4.01000E+03  4.02429E+03  7.85714E-01   2552   2     1     11  0.00000E+00
  1    410  1.61749E+03  3.87963E+03  1.00000E+00  1.25749E+04  4.01000E+03  4.02429E+03  9.28571E-01   2552   2     1     11  0.00000E+00
  1    352  9.18773E+01  4.03037E+03  1.00000E+00  6.24121E+04  4.01000E+03  4.03000E+03  7.14286E-02   2552   2     1     11  0.00000E+00
  1    352  2.72729E+02  4.03034E+03  1.00000E+00  4.18645E+04  4.01000E+03  4.03000E+03  2.14286E-01   2552   2     1     11  0.00000E+00
  1    353  4.58473E+02  4.03033E+03  1.00000E+00  3.20185E+04  4.01000E+03  4.03000E+03  3.57143E-01   2552   2     1     11  0.00000E+00
  1    353  6.65027E+02  4.03032E+03  1.00000E+00  2.54857E+04  4.01000E+03  4.03000E+03  5.00000E-01   2552   2     1     11  0.00000E+00
  1    354  9.00279E+02  4.03032E+03  1.00000E+00  2.05850E+04  4.01000E+03  4.03000E+03  6.42857E-01   2552   2     1     11  0.00000E+00
  1    354  1.18480E+03  4.03032E+03  1.00000E+00  1.65373E+04  4.01000E+03  4.03000E+03  7.85714E-01   2552   2     1     11  0.00000E+00
  1    355  1.59989E+03  4.03032E+03  1.00000E+00  1.26404E+04  4.01000E+03  4.03000E+03  9.28571E-01   2552   2     1     11  0.00000E+00
  1    244  9.18808E+01  4.52040E+03  1.00000E+00  6.32057E+04  4.01000E+03  4.03571E+03  7.14286E-02   2552   2     1     11  0.00000E+00
  1    244  2.75495E+02  4.51187E+03  1.00000E+00  4.23759E+04  4.01000E+03  4.03571E+03  2.14286E-01   2552   2     1     11  0.00000E+00
  1    245  4.69798E+02  4.48229E+03  1.00000E+00  3.21509E+04  4.01000E+03  4.03571E+03  3.57143E-01   2552   2     1     11  0.00000E+00
  1    245  6.84231E+02  4.43356E+03  1.00000E+00  2.54233E+04  4.01000E+03  4.03571E+03  5.00000E-01   2552   2     1     11  0.00000E+00
  1    246  9.26167E+02  4.37652E+03  1.00000E+00  2.04101E+04  4.01000E+03  4.03571E+03  6.42857E-01   2552   2     1     11  0.00000E+00
  1    274  1.21563E+03  4.29857E+03  1.00000E+00  1.63405E+04  4.01000E+03  4.03571E+03  7.85714E-01   2552   2     1     11  0.00000E+00
  1    302  1.61751E+03  4.18099E+03  1.00000E+00  1.25748E+04  4.01000E+03  4.03571E+03  9.28571E-01   2552   2     1     11  0.00000E+00
  1    190  9.75041E+01  5.03878E+03  1.00000E+00  6.48028E+04  4.01000E+03  4.04143E+03  7.14286E-02   2552   2     1     11  0.00000E+00
  1    190  2.96647E+02  4.96266E+03  1.00000E+00  4.29547E+04  4.01000E+03  4.04143E+03  2.14286E-01   2552   2     1     11  0.00000E+00
  1    191  5.02801E+02  4.89788E+03  1.00000E+00  3.23153E+04  4.01000E+03  4.04143E+03  3.57143E-01   2552   2     1     11  0.00000E+00
  1    218  7.30370E+02  4.80393E+03  1.00000E+00  2.53657E+04  4.01000E+03  4.04143E+03  5.00000E-01   2552   2     1     11  0.00000E+00
  1    219  9.84315E+02  4.70141E+03  1.00000E+00  2.02895E+04  4.01000E+03  4.04143E+03  6.42857E-01   2552   2     1     11  0.00000E+00
  1    247  1.27434E+03  4.54816E+03  1.00000E+00  1.60803E+04  4.01000E+03  4.04143E+03  7.85714E-01   2552   2     1     11  0.00000E+00
  1    275  1.67322E+03  4.34045E+03  1.00000E+00  1.23701E+04  4.01000E+03  4.04143E+03  9.28571E-01   2552   2     1     11  0.00000E+00
  1    163  1.12252E+02  5.46865E+03  1.00000E+00  6.55422E+04  4.01000E+03  4.04714E+03  7.14286E-02   2552   2     1     11  0.00000E+00
  1    163  3.29861E+02  5.38008E+03  1.00000E+00  4.36463E+04  4.01000E+03  4.04714E+03  2.14286E-01   2552   2     1     11  0.00000E+00
  1    164  5.56264E+02  5.27318E+03  1.00000E+00  3.25204E+04  4.01000E+03  4.04714E+03  3.57143E-01   2552   2     1     11  0.00000E+00
  1    191  7.99297E+02  5.14359E+03  1.00000E+00  2.54308E+04  4.01000E+03  4.04714E+03  5.00000E-01   2552   2     1     11  0.00000E+00
  1    192  1.04951E+03  4.98125E+03  1.00000E+00  2.02832E+04  4.01000E+03  4.04714E+03  6.42857E-01   2552   2     1     11  0.00000E+00
  1    220  1.34057E+03  4.77651E+03  1.00000E+00  1.60278E+04  4.01000E+03  4.04714E+03  7.85714E-01   2552   2     1     11  0.00000E+00
  1    248  1.72397E+03  4.48461E+03  1.00000E+00  1.23308E+04  4.01000E+03  4.04714E+03  9.28571E-01   2552   2     1     11  0.00000E+00
  1    676  3.63516E+02  7.11879E+02  1.00000E+00  8.01484E+04  4.05000E+03  4.01286E+03  7.14286E-02   2552   2     1     11  0.00000E+00
  1    651  1.04396E+03  9.52992E+02  1.00000E+00  5.15179E+04  4.05000E+03  4.01286E+03  2.14286E-01   2552   2     1     11  0.00000E+00
  1    626  1.69889E+03  1.30301E+03  1.00000E+00  3.60733E+04  4.05000E+03  4.01286E+03  3.57143E-01   2552   2     1     11  0.00000E+00
  1    600  2.11051E+03  1.77096E+03  1.00000E+00  2.66978E+04  4.05000E+03  4.01286E+03  5.00000E-01   2552   2     1     11  0.00000E+00
  1    573  2.36450E+03  2.29626E+03  1.00000E+00  1.95073E+04  4.05000E+03  4.01286E+03  6.42857E-01   2552   2     1     11  0.00000E+00
  1    520  2.48800E+03  2.85396E+03  1.00000E+00  1.46983E+04  4.05000E+03  4.01286E+03  7.85714E-01   2552   2     1     11  0.00000E+00
  1    493  2.44306E+03  3.41724E+03  1.00000E+00  1.12472E+04  4.05000E+03  4.01286E+03  9.28571E-01   2552   2     1     11  0.00000E+00
  1    677  4.70873E+02  6.33570E+02  1.00000E+00  8.17716E+04  4.05000E+03  4.01857E+03  7.14286E-02   2552   2     1     11  0.00000E+00
  1    652  1.28942E+03  9.35362E+02  1.00000E+00  5.35581E+04  4.05000E+03  4.01857E+03  2.14286E-01   2552   2     1     11  0.00000E+00
  1    626  1.99628E+03  1.40701E+03  1.00000E+00  3.81869E+04  4.05000E+03  4.01857E+03  3.57143E-01   2552   2     1     11  0.00000E+00
  1    574  2.40826E+03  2.00943E+03  1.00000E+00  2.76622E+04  4.05000E+03  4.01857E+03  5.00000E-01   2552   2     1     11  0.00000E+00
  1    547  2.58859E+03  2.59522E+03  1.00000E+00  1.97489E+04  4.05000E+03  4.01857E+03  6.42857E-01   2552   2     1     11  0.00000E+00
  1    520  2.67714E+03  3.13230E+03  1.00000E+00  1.48021E+04  4.05000E+03  4.01857E+03  7.85714E-01   2552   2     1     11  0.00000E+00
  1    466  2.56553E+03  3.58392E+03  1.00000E+00  1.08066E+04  4.05000E+03  4.01857E+03  9.28571E-01   2552   2     1     11  0.00000E+00
  1    677  6.60646E+02  6.00000E+02  1.00000E+00  8.81755E+04  4.05000E+03  4.02429E+03  7.14286E-02   2552   2     1     11  0.00000E+00
  1    653  1.64942E+03  1.01350E+03  1.00000E+00  5.87317E+04  4.05000E+03  4.02429E+03  2.14286E-01   2552   2     1     11  0.00000E+00
  1    600  2.38987E+03  1.75500E+03  1.00000E+00  4.11001E+04  4.05000E+03  4.02429E+03  3.57143E-01   2552   2     1     11  0.00000E+00
  1    547  2.72453E+03  2.54299E+03  1.00000E+00  2.78975E+04  4.05000E+03  4.02429E+03  5.00000E-01   2552   2     1     11  0.00000E+00
  1    521  2.85913E+03  3.12220E+03  1.00000E+00  2.06226E+04  4.05000E+03  4.02429E+03  6.42857E-01   2552   2     1     11  0.00000E+00
  1    494  2.84117E+03  3.49359E+03  1.00000E+00  1.42367E+04  4.05000E+03  4.02429E+03  7.85714E-01   2552   2     1     11  0.00000E+00
  1    439  2.65538E+03  3.80883E+03  1.00000E+00  1.08320E+04  4.05000E+03  4.02429E+03  9.28571E-01   2552   2     1     11  0.00000E+00
  1    305  3.14376E+03  4.11514E+03  1.00000E+00  1.49054E+05  4.05000E+03  4.03000E+03  7.14286E-02   2552   2     1     11  0.00000E+00
  1    359  3.14394E+03  4.03187E+03  1.00000E+00  8.32575E+04  4.05000E+03  4.03000E+03  2.14286E-01   2552   2     1     11  0.00000E+00
  1    359  3.13566E+03  4.03051E+03  1.00000E+00  4.07966E+04  4.05000E+03  4.03000E+03  3.57143E-01   2552   2     1     11  0.00000E+00
  1    359  3.10636E+03  4.03032E+03  1.00000E+00  3.01871E+04  4.05000E+03  4.03000E+03  5.00000E-01   2552   2     1     11  0.00000E+00
  1    359  3.04337E+03  4.03027E+03  1.00000E+00  1.94363E+04  4.05000E+03  4.03000E+03  6.42857E-01   2552   2     1     11  0.00000E+00
  1    359  2.92686E+03  4.03026E+03  1.00000E+00  1.48904E+04  4.05000E+03  4.03000E+03  7.85714E-01   2552   2     1     11  0.00000E+00
  1    358  2.69277E+03  4.03028E+03  1.00000E+00  1.08022E+04  4.05000E+03  4.03000E+03  9.28571E-01   2552   2     1     11  0.00000E+00
  1     29  6.60666E+02  7.45984E+03  1.00000E+00  8.81542E+04  4.05000E+03  4.03571E+03  7.14286E-02   2552   2     1     11  0.00000E+00
  1     59  1.64933E+03  7.04634E+03  1.00000E+00  5.87219E+04  4.05000E+03  4.03571E+03  2.14286E-01   2552   2     1     11  0.00000E+00
  1    114  2.38964E+03  6.30499E+03  1.00000E+00  4.10962E+04  4.05000E+03  4.03571E+03  3.57143E-01   2552   2     1     11  0.00000E+00
  1    169  2.72430E+03  5.51716E+03  1.00000E+00  2.78981E+04  4.05000E+03  4.03571E+03  5.00000E-01   2552   2     1     11  0.00000E+00
  1    197  2.85884E+03  4.93806E+03  1.00000E+00  2.06233E+04  4.05000E+03  4.03571E+03  6.42857E-01   2552   2     1     11  0.00000E+00
  1    224  2.84109E+03  4.56676E+03  1.00000E+00  1.42369E+04  4.05000E+03  4.03571E+03  7.85714E-01   2552   2     1     11  0.00000E+00
  1    277  2.65534E+03  4.25169E+03  1.00000E+00  1.08321E+04  4.05000E+03  4.03571E+03  9.28571E-01   2552   2     1     11  0.00000E+00
  1     29  4.70938E+02  7.42625E+03  1.00000E+00  8.17613E+04  4.05000E+03  4.04143E+03  7.14286E-02   2552   2     1     11  0.00000E+00
  1     58  1.28942E+03  7.12446E+03  1.00000E+00  5.35528E+04  4.05000E+03  4.04143E+03  2.14286E-01   2552   2     1     11  0.00000E+00
  1     86  1.99615E+03  6.65286E+03  1.00000E+00  3.81848E+04  4.05000E+03  4.04143E+03  3.57143E-01   2552   2     1     11  0.00000E+00
  1    142  2.40807E+03  6.05056E+03  1.00000E+00  2.76603E+04  4.05000E+03  4.04143E+03  5.00000E-01   2552   2     1     11  0.00000E+00
  1    169  2.58841E+03  5.46488E+03  1.00000E+00  1.97490E+04  4.05000E+03  4.04143E+03  6.42857E-01   2552   2     1     11  0.00000E+00
  1    196  2.67693E+03  4.92793E+03  1.00000E+00  1.48024E+04  4.05000E+03  4.04143E+03  7.85714E-01   2552   2     1     11  0.00000E+00
  1    250  2.56547E+03  4.47650E+03  1.00000E+00  1.08066E+04  4.05000E+03  4.04143E+03  9.28571E-01   2552   2     1     11  0.00000E+00
  1     28  3.63588E+02  7.34795E+03  1.00000E+00  8.01379E+04  4.05000E+03  4.04714E+03  7.14286E-02   2552   2     1     11  0.00000E+00
  1     57  1.04401E+03  7.10684E+03  1.00000E+00  5.15126E+04  4.05000E+03  4.04714E+03  2.14286E-01   2552   2     1     11  0.00000E+00
  1     86  1.69884E+03  6.75684E+03  1.00000E+00  3.60709E+04  4.05000E+03  4.04714E+03  3.57143E-01   2552   2     1     11  0.00000E+00
  1    114  2.11039E+03  6.28895E+03  1.00000E+00  2.66969E+04  4.05000E+03  4.04714E+03  5.00000E-01   2552   2     1     11  0.00000E+00
  1    141  2.36435E+03  5.76375E+03  1.00000E+00  1.95071E+04  4.05000E+03  4.04714E+03  6.42857E-01   2552   2     1     11  0.00000E+00
  1    196  2.48788E+03  5.20619E+03  1.00000E+00  1.46983E+04  4.05000E+03  4.04714E+03  7.85714E-01   2552   2     1     11  0.00000E+00
  1    223  2.44299E+03  4.64310E+03  1.00000E+00  1.12472E+04  4.05000E+03  4.04714E+03  9.28571E-01   2552   2     1     11  0.00000E+00
  1    568  1.33707E+02  2.17647E+03  1.00000E+00  6.67279E+04  4.01286E+03  4.01000E+03  7.14286E-02   2552   2     1     11  0.00000E+00
  1    568  3.71701E+02  2.33817E+03  1.00000E+00  4.42019E+04  4.01286E+03  4.01000E+03  2.14286E-01   2552   2     1     11  0.00000E+00
  1    542  6.27275E+02  2.45612E+03  1.00000E+00  3.27664E+04  4.01286E+03  4.01000E+03  3.57143E-01   2552   2     1     11  0.00000E+00
  1    543  8.82925E+02  2.61149E+03  1.00000E+00  2.55264E+04  4.01286E+03  4.01000E+03  5.00000E-01   2552   2     1     11  0.00000E+00
  1    516  1.14194E+03  2.80963E+03  1.00000E+00  2.00857E+04  4.01286E+03  4.01000E+03  6.42857E-01   2552   2     1     11  0.00000E+00
  1    517  1.43176E+03  3.05858E+03  1.00000E+00  1.59661E+04  4.01286E+03  4.01000E+03  7.85714E-01   2552   2     1     11  0.00000E+00
  1    491  1.78571E+03  3.45805E+03  1.00000E+00  1.21925E+04  4.01286E+03  4.01000E+03  9.28571E-01   2552   2     1     11  0.00000E+00
  1    595  1.65487E+02  1.86772E+03  1.00000E+00  6.66389E+04  4.01857E+03  4.01000E+03  7.14286E-02   2552   2     1     11  0.00000E+00
  1    569  4.44092E+02  2.03325E+03  1.00000E+00  4.40043E+04  4.01857E+03  4.01000E+03  2.14286E-01   2552   2     1     11  0.00000E+00
  1    569  7.20897E+02  2.15977E+03  1.00000E+00  3.28941E+04  4.01857E+03  4.01000E+03  3.57143E-01   2552   2     1     11  0.00000E+00
  1    570  9.78199E+02  2.34269E+03  1.00000E+00  2.56128E+04  4.01857E+03  4.01000E+03  5.00000E-01   2552   2     1     11  0.00000E+00
  1    544  1.24564E+03  2.57283E+03  1.00000E+00  2.02872E+04  4.01857E+03  4.01000E+03  6.42857E-01   2552   2     1     11  0.00000E+00
  1    517  1.52819E+03  2.86288E+03  1.00000E+00  1.59252E+04  4.01857E+03  4.01000E+03  7.85714E-01   2552   2     1     11  0.00000E+00
  1    491  1.84601E+03  3.31749E+03  1.00000E+00  1.22246E+04  4.01857E+03  4.01000E+03  9.28571E-01   2552   2     1     11  0.00000E+00
  1    622  1.97440E+02  1.59074E+03  1.00000E+00  6.73460E+04  4.02429E+03  4.01000E+03  7.14286E-02   2552   2     1     11  0.00000E+00
  1    596  5.22061E+02  1.75796E+03  1.00000E+00  4.44397E+04  4.02429E+03  4.01000E+03  2.14286E-01   2552   2     1     11  0.00000E+00
  1    597  8.22528E+02  1.89736E+03  1.00000E+00  3.31572E+04  4.02429E+03  4.01000E+03  3.57143E-01   2552   2     1     11  0.00000E+00
  1    570  1.10061E+03  2.09251E+03  1.00000E+00  2.58643E+04  4.02429E+03  4.01000E+03  5.00000E-01   2552   2     1     11  0.00000E+00
  1    571  1.35530E+03  2.35166E+03  1.00000E+00  2.04927E+04  4.02429E+03  4.01000E+03  6.42857E-01   2552   2     1     11  0.00000E+00
  1    545  1.61762E+03  2.68534E+03  1.00000E+00  1.62230E+04  4.02429E+03  4.01000E+03  7.85714E-01   2552   2     1     11  0.00000E+00
  1    491  1.92662E+03  3.21490E+03  1.00000E+00  1.21803E+04  4.02429E+03  4.01000E+03  9.28571E-01   2552   2     1     11  0.00000E+00
  1    622  2.34556E+02  1.37659E+03  1.00000E+00  6.80203E+04  4.03000E+03  4.01000E+03  7.14286E-02   2552   2     1     11  0.00000E+00
  1    623  6.11313E+02  1.52547E+03  1.00000E+00  4.46967E+04  4.03000E+03  4.01000E+03  2.14286E-01   2552   2     1     11  0.00000E+00
  1    597  9.51011E+02  1.67240E+03  1.00000E+00  3.33868E+04  4.03000E+03  4.01000E+03  3.57143E-01   2552   2     1     11  0.00000E+00
  1    598  1.24163E+03  1.88918E+03  1.00000E+00  2.60950E+04  4.03000E+03  4.01000E+03  5.00000E-01   2552   2     1     11  0.00000E+00
  1    571  1.50476E+03  2.17799E+03  1.00000E+00  2.06425E+04  4.03000E+03  4.01000E+03  6.42857E-01   2552   2     1     11  0.00000E+00
  1    545  1.74283E+03  2.55704E+03  1.00000E+00  1.62891E+04  4.03000E+03  4.01000E+03  7.85714E-01   2552   2     1     11  0.00000E+00
  1    519  2.01015E+03  3.13891E+03  1.00000E+00  1.21424E+04  4.03000E+03  4.01000E+03  9.28571E-01   2552   2     1     11  0.00000E+00
  1    649  2.53423E+02  1.18497E+03  1.00000E+00  7.05204E+04  4.03571E+03  4.01000E+03  7.14286E-02   2552   2     1     11  0.00000E+00
  1    623  6.83069E+02  1.32239E+03  1.00000E+00  4.64109E+04  4.03571E+03  4.01000E+03  2.14286E-01   2552   2     1     11  0.00000E+00
  1    624  1.08910E+03  1.48626E+03  1.00000E+00  3.39902E+04  4.03571E+03  4.01000E+03  3.57143E-01   2552   2     1     11  0.00000E+00
  1    598  1.42137E+03  1.74360E+03  1.00000E+00  2.61211E+04  4.03571E+03  4.01000E+03  5.00000E-01   2552   2     1     11  0.00000E+00
  1    572  1.69167E+03  2.08283E+03  1.00000E+00  2.03567E+04  4.03571E+03  4.01000E+03  6.42857E-01   2552   2     1     11  0.00000E+00
  1    545  1.91973E+03  2.52104E+03  1.00000E+00  1.58202E+04  4.03571E+03  4.01000E+03  7.85714E-01   2552   2     1     11  0.00000E+00
  1    519  2.11128E+03  3.13672E+03  1.00000E+00  1.19130E+04  4.03571E+03  4.01000E+03  9.28571E-01   2552   2     1     11  0.00000E+00
  1    649  2.72560E+02  9.89818E+02  1.00000E+00  7.45421E+04  4.04143E+03  4.01000E+03  7.14286E-02   2552   2     1     11  0.00000E+00
  1    650  7.57782E+02  1.15552E+03  1.00000E+00  4.83799E+04  4.04143E+03  4.01000E+03  2.14286E-01   2552   2     1     11  0.00000E+00
  1    625  1.26382E+03  1.36583E+03  1.00000E+00  3.44101E+04  4.04143E+03  4.01000E+03  3.57143E-01   2552   2     1     11  0.00000E+00
  1    599  1.63273E+03  1.67927E+03  1.00000E+00  2.59596E+04  4.04143E+03  4.01000E+03  5.00000E-01   2552   2     1     11  0.00000E+00
  1    572  1.90244E+03  2.06904E+03  1.00000E+00  2.00366E+04  4.04143E+03  4.01000E+03  6.42857E-01   2552   2     1     11  0.00000E+00
  1    546  2.10398E+03  2.56400E+03  1.00000E+00  1.53436E+04  4.04143E+03  4.01000E+03  7.85714E-01   2552   2     1     11  0.00000E+00
  1    492  2.24310E+03  3.20241E+03  1.00000E+00  1.14917E+04  4.04143E+03  4.01000E+03  9.28571E-01   2552   2     1     11  0.00000E+00
  1    649  3.06733E+02  8.42099E+02  1.00000E+00  7.72563E+04  4.04714E+03  4.01000E+03  7.14286E-02   2552   2     1     11  0.00000E+00
  1    651  8.81732E+02  1.03328E+03  1.00000E+00  4.97610E+04  4.04714E+03  4.01000E+03  2.14286E-01   2552   2     1     11  0.00000E+00
  1    625  1.45924E+03  1.29780E+03  1.00000E+00  3.50756E+04  4.04714E+03  4.01000E+03  3.57143E-01   2552   2     1     11  0.00000E+00
  1    599  1.86054E+03  1.67855E+03  1.00000E+00  2.61071E+04  4.04714E+03  4.01000E+03  5.00000E-01   2552   2     1     11  0.00000E+00
  1    573  2.13004E+03  2.14192E+03  1.00000E+00  1.97619E+04  4.04714E+03  4.01000E+03  6.42857E-01   2552   2     1     11  0.00000E+00
  1    546  2.27446E+03  2.65697E+03  1.00000E+00  1.51888E+04  4.04714E+03  4.01000E+03  7.85714E-01   2552   2     1     11  0.00000E+00
  1    492  2.35379E+03  3.30706E+03  1.00000E+00  1.12628E+04  4.04714E+03  4.01000E+03  9.28571E-01   2552   2     1     11  0.00000E+00
  1    136  1.33785E+02  5.88408E+03  1.00000E+00  6.67207E+04  4.01286E+03  4.05000E+03  7.14286E-02   2552   2     1     11  0.00000E+00
  1    136  3.71835E+02  5.72224E+03  1.00000E+00  4.41978E+04  4.01286E+03  4.05000E+03  2.14286E-01   2552   2     1     11  0.00000E+00
  1    164  6.27392E+02  5.60424E+03  1.00000E+00  3.27639E+04  4.01286E+03  4.05000E+03  3.57143E-01   2552   2     1     11  0.00000E+00
  1    165  8.83032E+02  5.44885E+03  1.00000E+00  2.55250E+04  4.01286E+03  4.05000E+03  5.00000E-01   2552   2     1     11  0.00000E+00
  1    192  1.14203E+03  5.25072E+03  1.00000E+00  2.00850E+04  4.01286E+03  4.05000E+03  6.42857E-01   2552   2     1     11  0.00000E+00
  1    193  1.43184E+03  5.00179E+03  1.00000E+00  1.59657E+04  4.01286E+03  4.05000E+03  7.85714E-01   2552   2     1     11  0.00000E+00
  1    221  1.78572E+03  4.60241E+03  1.00000E+00  1.21926E+04  4.01286E+03  4.05000E+03  9.28571E-01   2552   2     1     11  0.00000E+00
  1    109  1.65571E+02  6.19262E+03  1.00000E+00  6.66311E+04  4.01857E+03  4.05000E+03  7.14286E-02   2552   2     1     11  0.00000E+00
  1    137  4.44212E+02  6.02699E+03  1.00000E+00  4.39999E+04  4.01857E+03  4.05000E+03  2.14286E-01   2552   2     1     11  0.00000E+00
  1    137  7.21007E+02  5.90043E+03  1.00000E+00  3.28915E+04  4.01857E+03  4.05000E+03  3.57143E-01   2552   2     1     11  0.00000E+00
  1    138  9.78288E+02  5.71757E+03  1.00000E+00  2.56114E+04  4.01857E+03  4.05000E+03  5.00000E-01   2552   2     1     11  0.00000E+00
  1    166  1.24572E+03  5.48741E+03  1.00000E+00  2.02864E+04  4.01857E+03  4.05000E+03  6.42857E-01   2552   2     1     11  0.00000E+00
  1    193  1.52825E+03  5.19741E+03  1.00000E+00  1.59248E+04  4.01857E+03  4.05000E+03  7.85714E-01   2552   2     1     11  0.00000E+00
  1    221  1.84605E+03  4.74291E+03  1.00000E+00  1.22245E+04  4.01857E+03  4.05000E+03  9.28571E-01   2552   2     1     11  0.00000E+00
  1     82  1.97527E+02  6.46941E+03  1.00000E+00  6.73376E+04  4.02429E+03  4.05000E+03  7.14286E-02   2552   2     1     11  0.00000E+00
  1    110  5.22169E+02  6.30213E+03  1.00000E+00  4.44350E+04  4.02429E+03  4.05000E+03  2.14286E-01   2552   2     1     11  0.00000E+00
  1    111  8.22618E+02  6.16272E+03  1.00000E+00  3.31544E+04  4.02429E+03  4.05000E+03  3.57143E-01   2552   2     1     11  0.00000E+00
  1    138  1.10069E+03  5.96754E+03  1.00000E+00  2.58626E+04  4.02429E+03  4.05000E+03  5.00000E-01   2552   2     1     11  0.00000E+00
  1    139  1.35535E+03  5.70844E+03  1.00000E+00  2.04918E+04  4.02429E+03  4.05000E+03  6.42857E-01   2552   2     1     11  0.00000E+00
  1    167  1.61765E+03  5.37486E+03  1.00000E+00  1.62226E+04  4.02429E+03  4.05000E+03  7.85714E-01   2552   2     1     11  0.00000E+00
  1    221  1.92665E+03  4.84545E+03  1.00000E+00  1.21801E+04  4.02429E+03  4.05000E+03  9.28571E-01   2552   2     1     11  0.00000E+00
  1     82  2.34639E+02  6.68343E+03  1.00000E+00  6.80114E+04  4.03000E+03  4.05000E+03  7.14286E-02   2552   2     1     11  0.00000E+00
  1     83  6.11402E+02  6.53452E+03  1.00000E+00  4.46918E+04  4.03000E+03  4.05000E+03  2.14286E-01   2552   2     1     11  0.00000E+00
  1    111  9.51087E+02  6.38758E+03  1.00000E+00  3.33839E+04  4.03000E+03  4.05000E+03  3.57143E-01   2552   2     1     11  0.00000E+00
  1    112  1.24166E+03  6.17083E+03  1.00000E+00  2.60932E+04  4.03000E+03  4.05000E+03  5.00000E-01   2552   2     1     11  0.00000E+00
  1    139  1.50478E+03  5.88201E+03  1.00000E+00  2.06415E+04  4.03000E+03  4.05000E+03  6.42857E-01   2552   2     1     11  0.00000E+00
  1    167  1.74284E+03  5.50311E+03  1.00000E+00  1.62886E+04  4.03000E+03  4.05000E+03  7.85714E-01   2552   2     1     11  0.00000E+00
  1    195  2.01013E+03  4.92139E+03  1.00000E+00  1.21425E+04  4.03000E+03  4.05000E+03  9.28571E-01   2552   2     1     11  0.00000E+00
  1     55  2.53503E+02  6.87497E+03  1.00000E+00  7.05109E+04  4.03571E+03  4.05000E+03  7.14286E-02   2552   2     1     11  0.00000E+00
  1     83  6.83154E+02  6.73752E+03  1.00000E+00  4.64057E+04  4.03571E+03  4.05000E+03  2.14286E-01   2552   2     1     11  0.00000E+00
  1     84  1.08914E+03  6.57366E+03  1.00000E+00  3.39872E+04  4.03571E+03  4.05000E+03  3.57143E-01   2552   2     1     11  0.00000E+00
  1    112  1.42138E+03  6.31634E+03  1.00000E+00  2.61194E+04  4.03571E+03  4.05000E+03  5.00000E-01   2552   2     1     11  0.00000E+00
  1    140  1.69166E+03  5.97713E+03  1.00000E+00  2.03558E+04  4.03571E+03  4.05000E+03  6.42857E-01   2552   2     1     11  0.00000E+00
  1    167  1.91971E+03  5.53906E+03  1.00000E+00  1.58199E+04  4.03571E+03  4.05000E+03  7.85714E-01   2552   2     1     11  0.00000E+00
  1    195  2.11124E+03  4.92355E+03  1.00000E+00  1.19131E+04  4.03571E+03  4.05000E+03  9.28571E-01   2552   2     1     11  0.00000E+00
  1     55  2.72634E+02  7.07006E+03  1.00000E+00  7.45319E+04  4.04143E+03  4.05000E+03  7.14286E-02   2552   2     1     11  0.00000E+00
  1     56  7.57840E+02  6.90435E+03  1.00000E+00  4.83749E+04  4.04143E+03  4.05000E+03  2.14286E-01   2552   2     1     11  0.00000E+00
  1     85  1.26384E+03  6.69405E+03  1.00000E+00  3.44072E+04  4.04143E+03  4.05000E+03  3.57143E-01   2552   2     1     11  0.00000E+00
  1    113  1.63271E+03  6.38064E+03  1.00000E+00  2.59581E+04  4.04143E+03  4.05000E+03  5.00000E-01   2552   2     1     11  0.00000E+00
  1    140  1.90239E+03  5.99084E+03  1.00000E+00  2.00358E+04  4.04143E+03  4.05000E+03  6.42857E-01   2552   2     1     11  0.00000E+00
  1    168  2.10391E+03  5.49611E+03  1.00000E+00  1.53435E+04  4.04143E+03  4.05000E+03  7.85714E-01   2552   2     1     11  0.00000E+00
  1    222  2.24307E+03  4.85787E+03  1.00000E+00  1.14916E+04  4.04143E+03  4.05000E+03  9.28571E-01   2552   2     1     11  0.00000E+00
  1     55  3.06810E+02  7.21775E+03  1.00000E+00  7.72461E+04  4.04714E+03  4.05000E+03  7.14286E-02   2552   2     1     11  0.00000E+00
  1     57  8.81783E+02  7.02657E+03  1.00000E+00  4.97557E+04  4.04714E+03  4.05000E+03  2.14286E-01   2552   2     1     11  0.00000E+00
  1     85  1.45923E+03  6.76205E+03  1.00000E+00  3.50728E+04  4.04714E+03  4.05000E+03  3.57143E-01   2552   2     1     11  0.00000E+00
  1    113  1.86047E+03  6.38135E+03  1.00000E+00  2.61059E+04  4.04714E+03  4.05000E+03  5.00000E-01   2552   2     1     11  0.00000E+00
  1    141  2.12994E+03  5.91806E+03  1.00000E+00  1.97614E+04  4.04714E+03  4.05000E+03  6.42857E-01   2552   2     1     11  0.00000E+00
  1    168  2.27435E+03  5.40314E+03  1.00000E+00  1.51887E+04  4.04714E+03  4.05000E+03  7.85714E-01   2552   2     1     11  0.00000E+00
  1    222  2.35375E+03  4.75325E+03  1.00000E+00  1.12628E+04  4.04714E+03  4.05000E+03  9.28571E-01   2552   2     1     11  0.00000E+00
  1    411  2.13894E+03  3.92816E+03  1.00000E+00  9.87244E+03  4.02000E+03  4.02000E+03  9.99900E-01   2552   2     1     11  0.00000E+00
  1    303  2.13896E+03  4.13247E+03  1.00000E+00  9.87242E+03  4.02000E+03  4.04000E+03  9.99900E-01   2552   2     1     11  0.00000E+00
  1    411  2.27799E+03  3.90879E+03  1.00000E+00  9.49476E+03  4.04000E+03  4.02000E+03  9.99900E-01   2552   2     1     11  0.00000E+00
  1    303  2.27799E+03  4.15183E+03  1.00000E+00  9.49476E+03  4.04000E+03  4.04000E+03  9.99900E-01   2552   2     1     11  0.00000E+00
