@ [ MODPATH Version 3.00 (V3, Release 2, 6-2000)(COMPACT)(TREF=   0.000000E+00 ) ]
  1    297  8.05892E+03  4.26429E+03  1.00000E+00  2.82926E+05  1.00000E+02  7.76000E+03  9.99900E-01      1   1     1     11  0.00000E+00
  1    135  8.05967E+03  6.24580E+03  1.00000E+00  2.50704E+05  1.00000E+02  7.96000E+03  9.99900E-01      1   1     1     11  0.00000E+00
  1    216  8.05757E+03  5.04920E+03  1.00000E+00  1.96779E+05  3.00000E+02  7.76000E+03  9.99900E-01      1   1     1     11  0.00000E+00
  1     81  8.05863E+03  6.92141E+03  1.00000E+00  1.86313E+05  3.00000E+02  7.96000E+03  9.99900E-01      1   1     1     11  0.00000E+00
  1    189  8.05619E+03  5.52572E+03  1.00000E+00  1.63109E+05  5.00000E+02  7.76000E+03  9.99900E-01      2   1     1     11  0.00000E+00
  1     81  8.05719E+03  7.17067E+03  1.00000E+00  1.56389E+05  5.00000E+02  7.96000E+03  9.99900E-01      2   1     1     11  0.00000E+00
  1    162  8.05454E+03  5.88175E+03  1.00000E+00  1.41161E+05  7.00000E+02  7.76000E+03  9.99900E-01      2   1     1     11  0.00000E+00
  1     54  8.05540E+03  7.32129E+03  1.00000E+00  1.36265E+05  7.00000E+02  7.96000E+03  9.99900E-01      2   1     1     11  0.00000E+00
  1    135  8.05262E+03  6.17297E+03  1.00000E+00  1.24589E+05  9.00000E+02  7.76000E+03  9.99900E-01      3   1     1     11  0.00000E+00
  1     54  8.05324E+03  7.43066E+03  1.00000E+00  1.20841E+05  9.00000E+02  7.96000E+03  9.99900E-01      3   1     1     11  0.00000E+00
  1    135  8.05041E+03  6.43165E+03  1.00000E+00  1.10683E+05  1.10000E+03  7.76000E+03  9.99900E-01      3   1     1     11  0.00000E+00
  1     54  8.05073E+03  7.52180E+03  1.00000E+00  1.07757E+05  1.10000E+03  7.96000E+03  9.99900E-01      3   1     1     11  0.00000E+00
  1    108  8.04758E+03  6.66010E+03  1.00000E+00  9.86098E+04  1.30000E+03  7.76000E+03  9.99900E-01      4   1     1     11  0.00000E+00
  1     54  8.04783E+03  7.59724E+03  1.00000E+00  9.64941E+04  1.30000E+03  7.96000E+03  9.99900E-01      4   1     1     11  0.00000E+00
  1    108  8.04450E+03  6.84069E+03  1.00000E+00  8.88049E+04  1.50000E+03  7.76000E+03  9.99900E-01      4   1     1     11  0.00000E+00
  1     54  8.04455E+03  7.65742E+03  1.00000E+00  8.71293E+04  1.50000E+03  7.96000E+03  9.99900E-01      4   1     1     11  0.00000E+00
  1     81  8.04062E+03  7.01323E+03  1.00000E+00  7.93336E+04  1.70000E+03  7.76000E+03  9.99900E-01      5   1     1     11  0.00000E+00
  1     27  8.04064E+03  7.71432E+03  1.00000E+00  7.80395E+04  1.70000E+03  7.96000E+03  9.99900E-01      5   1     1     11  0.00000E+00
  1     81  8.03617E+03  7.18385E+03  1.00000E+00  6.94297E+04  1.90000E+03  7.76000E+03  9.99900E-01      5   1     1     11  0.00000E+00
  1     27  8.03605E+03  7.76978E+03  1.00000E+00  6.86497E+04  1.90000E+03  7.96000E+03  9.99900E-01      5   1     1     11  0.00000E+00
  1     54  8.03090E+03  7.30951E+03  1.00000E+00  6.20967E+04  2.10000E+03  7.76000E+03  9.99900E-01      6   1     1     11  0.00000E+00
  1     27  8.03063E+03  7.81129E+03  1.00000E+00  6.14427E+04  2.10000E+03  7.96000E+03  9.99900E-01      6   1     1     11  0.00000E+00
  1     54  8.02448E+03  7.42999E+03  1.00000E+00  5.34165E+04  2.30000E+03  7.76000E+03  9.99900E-01      6   1     1     11  0.00000E+00
  1     27  8.02425E+03  7.85104E+03  1.00000E+00  5.28883E+04  2.30000E+03  7.96000E+03  9.99900E-01      6   1     1     11  0.00000E+00
  1     54  8.01668E+03  7.54086E+03  1.00000E+00  4.54427E+04  2.50000E+03  7.76000E+03  9.99900E-01      7   1     1     11  0.00000E+00
  1     27  8.01653E+03  7.88735E+03  1.00000E+00  4.51522E+04  2.50000E+03  7.96000E+03  9.99900E-01      7   1     1     11  0.00000E+00
  1     54  8.00730E+03  7.63525E+03  1.00000E+00  3.67130E+04  2.70000E+03  7.76000E+03  9.99900E-01      7   1     1     11  0.00000E+00
  1     27  8.00722E+03  7.91849E+03  1.00000E+00  3.66457E+04  2.70000E+03  7.96000E+03  9.99900E-01      7   1     1     11  0.00000E+00
  1     27  7.99513E+03  7.72530E+03  1.00000E+00  1.10691E+04  2.90000E+03  7.76000E+03  9.99900E-01      8   1     1     11  0.00000E+00
  1     27  7.99513E+03  7.94843E+03  1.00000E+00  1.10691E+04  2.90000E+03  7.96000E+03  9.99900E-01      8   1     1     11  0.00000E+00
  1     27  7.98200E+03  7.72843E+03  1.00000E+00  1.01621E+04  3.10000E+03  7.76000E+03  9.99900E-01      8   1     1     11  0.00000E+00
  1     27  7.98200E+03  7.94948E+03  1.00000E+00  1.01621E+04  3.10000E+03  7.96000E+03  9.99900E-01      8   1     1     11  0.00000E+00
  1     27  7.97042E+03  7.73103E+03  1.00000E+00  9.42340E+03  3.27500E+03  7.76000E+03  9.99900E-01      9   1     1     11  0.00000E+00
  1     27  7.97042E+03  7.95034E+03  1.00000E+00  9.42340E+03  3.27500E+03  7.96000E+03  9.99900E-01      9   1     1     11  0.00000E+00
  1     27  7.96042E+03  7.73319E+03  1.00000E+00  8.82746E+03  3.42500E+03  7.76000E+03  9.99900E-01      9   1     1     11  0.00000E+00
  1     27  7.96042E+03  7.95106E+03  1.00000E+00  8.82746E+03  3.42500E+03  7.96000E+03  9.99900E-01      9   1     1     11  0.00000E+00
  1     27  7.95203E+03  7.73492E+03  1.00000E+00  8.35403E+03  3.55000E+03  7.76000E+03  9.99900E-01     10   1     1     11  0.00000E+00
  1     27  7.95203E+03  7.95164E+03  1.00000E+00  8.35403E+03  3.55000E+03  7.96000E+03  9.99900E-01     10   1     1     11  0.00000E+00
  1     27  7.94529E+03  7.73628E+03  1.00000E+00  7.99004E+03  3.65000E+03  7.76000E+03  9.99900E-01     10   1     1     11  0.00000E+00
  1     27  7.94529E+03  7.95209E+03  1.00000E+00  7.99004E+03  3.65000E+03  7.96000E+03  9.99900E-01     10   1     1     11  0.00000E+00
  1     27  7.93937E+03  7.73743E+03  1.00000E+00  7.68137E+03  3.73750E+03  7.76000E+03  9.99900E-01     11   1     1     11  0.00000E+00
  1     27  7.93937E+03  7.95248E+03  1.00000E+00  7.68137E+03  3.73750E+03  7.96000E+03  9.99900E-01     11   1     1     11  0.00000E+00
  1     27  7.93428E+03  7.73839E+03  1.00000E+00  7.42401E+03  3.81250E+03  7.76000E+03  9.99900E-01     11   1     1     11  0.00000E+00
  1     27  7.93428E+03  7.95280E+03  1.00000E+00  7.42401E+03  3.81250E+03  7.96000E+03  9.99900E-01     11   1     1     11  0.00000E+00
  1     27  7.93003E+03  7.73918E+03  1.00000E+00  7.21427E+03  3.87500E+03  7.76000E+03  9.99900E-01     12   1     1     11  0.00000E+00
  1     27  7.93003E+03  7.95306E+03  1.00000E+00  7.21427E+03  3.87500E+03  7.96000E+03  9.99900E-01     12   1     1     11  0.00000E+00
  1     27  7.92662E+03  7.73980E+03  1.00000E+00  7.04963E+03  3.92500E+03  7.76000E+03  9.99900E-01     12   1     1     11  0.00000E+00
  1     27  7.92662E+03  7.95327E+03  1.00000E+00  7.04963E+03  3.92500E+03  7.96000E+03  9.99900E-01     12   1     1     11  0.00000E+00
  1     27  7.92389E+03  7.74029E+03  1.00000E+00  6.91980E+03  3.96500E+03  7.76000E+03  9.99900E-01     13   1     1     11  0.00000E+00
  1     27  7.92389E+03  7.95343E+03  1.00000E+00  6.91980E+03  3.96500E+03  7.96000E+03  9.99900E-01     13   1     1     11  0.00000E+00
  1     27  7.92183E+03  7.74065E+03  1.00000E+00  6.82356E+03  3.99500E+03  7.76000E+03  9.99900E-01     13   1     1     11  0.00000E+00
  1     27  7.92183E+03  7.95355E+03  1.00000E+00  6.82356E+03  3.99500E+03  7.96000E+03  9.99900E-01     13   1     1     11  0.00000E+00
  1     27  7.92012E+03  7.74095E+03  1.00000E+00  6.74405E+03  4.02000E+03  7.76000E+03  9.99900E-01     14   1     1     11  0.00000E+00
  1     27  7.92012E+03  7.95365E+03  1.00000E+00  6.74405E+03  4.02000E+03  7.96000E+03  9.99900E-01     14   1     1     11  0.00000E+00
  1     27  7.91875E+03  7.74118E+03  1.00000E+00  6.68093E+03  4.04000E+03  7.76000E+03  9.99900E-01     14   1     1     11  0.00000E+00
  1     27  7.91875E+03  7.95373E+03  1.00000E+00  6.68093E+03  4.04000E+03  7.96000E+03  9.99900E-01     14   1     1     11  0.00000E+00
  1     27  7.91704E+03  7.74148E+03  1.00000E+00  6.60260E+03  4.06500E+03  7.76000E+03  9.99900E-01     15   1     1     11  0.00000E+00
  1     27  7.91704E+03  7.95383E+03  1.00000E+00  6.60260E+03  4.06500E+03  7.96000E+03  9.99900E-01     15   1     1     11  0.00000E+00
  1     27  7.91497E+03  7.74183E+03  1.00000E+00  6.50943E+03  4.09500E+03  7.76000E+03  9.99900E-01     15   1     1     11  0.00000E+00
  1     27  7.91497E+03  7.95394E+03  1.00000E+00  6.50943E+03  4.09500E+03  7.96000E+03  9.99900E-01     15   1     1     11  0.00000E+00
  1     27  7.91222E+03  7.74229E+03  1.00000E+00  6.38663E+03  4.13500E+03  7.76000E+03  9.99900E-01     16   1     1     11  0.00000E+00
  1     27  7.91222E+03  7.95410E+03  1.00000E+00  6.38663E+03  4.13500E+03  7.96000E+03  9.99900E-01     16   1     1     11  0.00000E+00
  1     27  7.90878E+03  7.74285E+03  1.00000E+00  6.23528E+03  4.18500E+03  7.76000E+03  9.99900E-01     16   1     1     11  0.00000E+00
  1     27  7.90878E+03  7.95428E+03  1.00000E+00  6.23528E+03  4.18500E+03  7.96000E+03  9.99900E-01     16   1     1     11  0.00000E+00
  1     27  7.90447E+03  7.74354E+03  1.00000E+00  6.04956E+03  4.24750E+03  7.76000E+03  9.99900E-01     17   1     1     11  0.00000E+00
  1     27  7.90447E+03  7.95452E+03  1.00000E+00  6.04956E+03  4.24750E+03  7.96000E+03  9.99900E-01     17   1     1     11  0.00000E+00
  1     27  7.89928E+03  7.74435E+03  1.00000E+00  5.83143E+03  4.32250E+03  7.76000E+03  9.99900E-01     17   1     1     11  0.00000E+00
  1     27  7.89928E+03  7.95478E+03  1.00000E+00  5.83143E+03  4.32250E+03  7.96000E+03  9.99900E-01     17   1     1     11  0.00000E+00
  1     27  7.89321E+03  7.74527E+03  1.00000E+00  5.58353E+03  4.41000E+03  7.76000E+03  9.99900E-01     18   1     1     11  0.00000E+00
  1     27  7.89321E+03  7.95509E+03  1.00000E+00  5.58353E+03  4.41000E+03  7.96000E+03  9.99900E-01     18   1     1     11  0.00000E+00
  1     27  7.88625E+03  7.74627E+03  1.00000E+00  5.30840E+03  4.51000E+03  7.76000E+03  9.99900E-01     18   1     1     11  0.00000E+00
  1     27  7.88625E+03  7.95542E+03  1.00000E+00  5.30840E+03  4.51000E+03  7.96000E+03  9.99900E-01     18   1     1     11  0.00000E+00
  1     27  7.87753E+03  7.74746E+03  1.00000E+00  4.97681E+03  4.63500E+03  7.76000E+03  9.99900E-01     19   1     1     11  0.00000E+00
  1     27  7.87753E+03  7.95582E+03  1.00000E+00  4.97681E+03  4.63500E+03  7.96000E+03  9.99900E-01     19   1     1     11  0.00000E+00
  1     27  7.86701E+03  7.74881E+03  1.00000E+00  4.59548E+03  4.78500E+03  7.76000E+03  9.99900E-01     19   1     1     11  0.00000E+00
  1     27  7.86701E+03  7.95627E+03  1.00000E+00  4.59548E+03  4.78500E+03  7.96000E+03  9.99900E-01     19   1     1     11  0.00000E+00
  1     27  7.85469E+03  7.75025E+03  1.00000E+00  4.17322E+03  4.96000E+03  7.76000E+03  9.99900E-01     20   1     1     11  0.00000E+00
  1     27  7.85469E+03  7.95675E+03  1.00000E+00  4.17322E+03  4.96000E+03  7.96000E+03  9.99900E-01     20   1     1     11  0.00000E+00
  1     27  7.84054E+03  7.75175E+03  1.00000E+00  3.71815E+03  5.16000E+03  7.76000E+03  9.99900E-01     20   1     1     11  0.00000E+00
  1     27  7.84054E+03  7.95725E+03  1.00000E+00  3.71815E+03  5.16000E+03  7.96000E+03  9.99900E-01     20   1     1     11  0.00000E+00
  1     27  7.82632E+03  7.75309E+03  1.00000E+00  3.29085E+03  5.36000E+03  7.76000E+03  9.99900E-01     21   1     1     11  0.00000E+00
  1     27  7.82632E+03  7.95770E+03  1.00000E+00  3.29085E+03  5.36000E+03  7.96000E+03  9.99900E-01     21   1     1     11  0.00000E+00
  1     27  7.81204E+03  7.75427E+03  1.00000E+00  2.89043E+03  5.56000E+03  7.76000E+03  9.99900E-01     21   1     1     11  0.00000E+00
  1     27  7.81204E+03  7.95809E+03  1.00000E+00  2.89043E+03  5.56000E+03  7.96000E+03  9.99900E-01     21   1     1     11  0.00000E+00
  1     27  7.79772E+03  7.75532E+03  1.00000E+00  2.51499E+03  5.76000E+03  7.76000E+03  9.99900E-01     22   1     1     11  0.00000E+00
  1     27  7.79772E+03  7.95844E+03  1.00000E+00  2.51499E+03  5.76000E+03  7.96000E+03  9.99900E-01     22   1     1     11  0.00000E+00
  1     27  7.78335E+03  7.75623E+03  1.00000E+00  2.16384E+03  5.96000E+03  7.76000E+03  9.99900E-01     22   1     1     11  0.00000E+00
  1     27  7.78335E+03  7.95874E+03  1.00000E+00  2.16384E+03  5.96000E+03  7.96000E+03  9.99900E-01     22   1     1     11  0.00000E+00
  1     27  7.76893E+03  7.75701E+03  1.00000E+00  1.83530E+03  6.16000E+03  7.76000E+03  9.99900E-01     23   1     1     11  0.00000E+00
  1     27  7.76893E+03  7.95900E+03  1.00000E+00  1.83530E+03  6.16000E+03  7.96000E+03  9.99900E-01     23   1     1     11  0.00000E+00
  1     27  7.75449E+03  7.75768E+03  1.00000E+00  1.52879E+03  6.36000E+03  7.76000E+03  9.99900E-01     23   1     1     11  0.00000E+00
  1     27  7.75449E+03  7.95923E+03  1.00000E+00  1.52879E+03  6.36000E+03  7.96000E+03  9.99900E-01     23   1     1     11  0.00000E+00
  1     27  7.74001E+03  7.75826E+03  1.00000E+00  1.24282E+03  6.56000E+03  7.76000E+03  9.99900E-01     24   1     1     11  0.00000E+00
  1     27  7.74001E+03  7.95942E+03  1.00000E+00  1.24282E+03  6.56000E+03  7.96000E+03  9.99900E-01     24   1     1     11  0.00000E+00
  1     27  7.72551E+03  7.75873E+03  1.00000E+00  9.76888E+02  6.76000E+03  7.76000E+03  9.99900E-01     24   1     1     11  0.00000E+00
  1     27  7.72551E+03  7.95958E+03  1.00000E+00  9.76888E+02  6.76000E+03  7.96000E+03  9.99900E-01     24   1     1     11  0.00000E+00
  1     27  7.71098E+03  7.75913E+03  1.00000E+00  7.29644E+02  6.96000E+03  7.76000E+03  9.99900E-01     25   1     1     11  0.00000E+00
  1     27  7.71098E+03  7.95971E+03  1.00000E+00  7.29644E+02  6.96000E+03  7.96000E+03  9.99900E-01     25   1     1     11  0.00000E+00
  1     27  7.69644E+03  7.75945E+03  1.00000E+00  5.00631E+02  7.16000E+03  7.76000E+03  9.99900E-01     25   1     1     11  0.00000E+00
  1     27  7.69644E+03  7.95982E+03  1.00000E+00  5.00631E+02  7.16000E+03  7.96000E+03  9.99900E-01     25   1     1     11  0.00000E+00
  1     27  7.68189E+03  7.75971E+03  1.00000E+00  2.88649E+02  7.36000E+03  7.76000E+03  9.99900E-01     26   1     1     11  0.00000E+00
  1     27  7.68189E+03  7.95990E+03  1.00000E+00  2.88649E+02  7.36000E+03  7.96000E+03  9.99900E-01     26   1     1     11  0.00000E+00
  1     27  7.66732E+03  7.75991E+03  1.00000E+00  9.32647E+01  7.56000E+03  7.76000E+03  9.99900E-01     26   1     1     11  0.00000E+00
  1     27  7.66732E+03  7.95997E+03  1.00000E+00  9.32647E+01  7.56000E+03  7.96000E+03  9.99900E-01     26   1     1     11  0.00000E+00
  1     27  7.76003E+03  7.76000E+03  1.00000E+00  3.08438E-02  7.76000E+03  7.76000E+03  9.99900E-01     27   1     1     11  0.00000E+00
  1     27  7.76003E+03  7.96000E+03  1.00000E+00  3.08438E-02  7.76000E+03  7.96000E+03  9.99900E-01     27   1     1     11  0.00000E+00
  1     27  7.96001E+03  7.76000E+03  1.00000E+00  3.08438E-02  7.96000E+03  7.76000E+03  9.99900E-01     27   1     1     11  0.00000E+00
  1     27  7.96001E+03  7.96000E+03  1.00000E+00  3.08438E-02  7.96000E+03  7.96000E+03  9.99900E-01     27   1     1     11  0.00000E+00
  2   2552  4.04852E+03  4.05000E+03  2.19885E-02  1.07377E+05  1.00000E+02  7.36000E+03  9.99900E-01     28   1     1     11  0.00000E+00
  2   2552  4.05000E+03  4.04525E+03  9.81956E-03  1.20098E+05  1.00000E+02  7.56000E+03  9.99900E-01     28   1     1     11  0.00000E+00
  2   2552  4.05000E+03  4.04688E+03  5.87058E-02  8.46780E+04  3.00000E+02  7.36000E+03  9.99900E-01     28   1     1     11  0.00000E+00
  2   2552  4.05000E+03  4.03711E+03  2.87622E-02  1.06015E+05  3.00000E+02  7.56000E+03  9.99900E-01     28   1     1     11  0.00000E+00
  2   2552  4.05000E+03  4.04474E+03  8.40946E-02  7.60728E+04  5.00000E+02  7.36000E+03  9.99900E-01     29   1     1     11  0.00000E+00
  2   2552  4.05000E+03  4.03004E+03  1.14718E-02  1.90373E+05  5.00000E+02  7.56000E+03  9.99900E-01     29   1     1     11  0.00000E+00
  2   2552  4.05000E+03  4.04113E+03  1.05569E-01  7.26860E+04  7.00000E+02  7.36000E+03  9.99900E-01     29   1     1     11  0.00000E+00
  1    270  8.05291E+03  4.51251E+03  1.00000E+00  1.64709E+05  7.00000E+02  7.56000E+03  9.99900E-01     29   1     1     11  0.00000E+00
  2   2552  4.05000E+03  4.03673E+03  1.15667E-01  7.32440E+04  9.00000E+02  7.36000E+03  9.99900E-01     30   1     1     11  0.00000E+00
  1    216  8.05104E+03  4.91089E+03  1.00000E+00  1.38287E+05  9.00000E+02  7.56000E+03  9.99900E-01     30   1     1     11  0.00000E+00
  2   2552  4.05000E+03  4.03193E+03  8.27653E-02  9.11051E+04  1.10000E+03  7.36000E+03  9.99900E-01     30   1     1     11  0.00000E+00
  1    189  8.04921E+03  5.29837E+03  1.00000E+00  1.19526E+05  1.10000E+03  7.56000E+03  9.99900E-01     30   1     1     11  0.00000E+00
  1    270  8.04650E+03  4.53478E+03  1.00000E+00  1.27867E+05  1.30000E+03  7.36000E+03  9.99900E-01     31   1     1     11  0.00000E+00
  1    162  8.04699E+03  5.68219E+03  1.00000E+00  1.04073E+05  1.30000E+03  7.56000E+03  9.99900E-01     31   1     1     11  0.00000E+00
  1    216  8.04354E+03  5.04206E+03  1.00000E+00  1.03467E+05  1.50000E+03  7.36000E+03  9.99900E-01     31   1     1     11  0.00000E+00
  1    162  8.04408E+03  5.98239E+03  1.00000E+00  9.27719E+04  1.50000E+03  7.56000E+03  9.99900E-01     31   1     1     11  0.00000E+00
  1    189  8.04044E+03  5.47040E+03  1.00000E+00  8.86566E+04  1.70000E+03  7.36000E+03  9.99900E-01     32   1     1     11  0.00000E+00
  1    135  8.04056E+03  6.27587E+03  1.00000E+00  8.21588E+04  1.70000E+03  7.56000E+03  9.99900E-01     32   1     1     11  0.00000E+00
  1    162  8.03663E+03  5.88537E+03  1.00000E+00  7.60231E+04  1.90000E+03  7.36000E+03  9.99900E-01     32   1     1     11  0.00000E+00
  1    108  8.03638E+03  6.56991E+03  1.00000E+00  7.14221E+04  1.90000E+03  7.56000E+03  9.99900E-01     32   1     1     11  0.00000E+00
  1    135  8.03165E+03  6.24726E+03  1.00000E+00  6.57805E+04  2.10000E+03  7.36000E+03  9.99900E-01     33   1     1     11  0.00000E+00
  1    108  8.03120E+03  6.79151E+03  1.00000E+00  6.33566E+04  2.10000E+03  7.56000E+03  9.99900E-01     33   1     1     11  0.00000E+00
  1    108  8.02556E+03  6.54714E+03  1.00000E+00  5.60020E+04  2.30000E+03  7.36000E+03  9.99900E-01     33   1     1     11  0.00000E+00
  1     81  8.02488E+03  6.99693E+03  1.00000E+00  5.43643E+04  2.30000E+03  7.56000E+03  9.99900E-01     33   1     1     11  0.00000E+00
  1    108  8.01798E+03  6.82998E+03  1.00000E+00  4.53817E+04  2.50000E+03  7.36000E+03  9.99900E-01     34   1     1     11  0.00000E+00
  1     81  8.01717E+03  7.18802E+03  1.00000E+00  4.60229E+04  2.50000E+03  7.56000E+03  9.99900E-01     34   1     1     11  0.00000E+00
  1     81  8.00841E+03  7.05582E+03  1.00000E+00  3.79033E+04  2.70000E+03  7.36000E+03  9.99900E-01     34   1     1     11  0.00000E+00
  1     54  8.00790E+03  7.34576E+03  1.00000E+00  3.73082E+04  2.70000E+03  7.56000E+03  9.99900E-01     34   1     1     11  0.00000E+00
  1     54  7.99586E+03  7.28071E+03  1.00000E+00  1.10733E+04  2.90000E+03  7.36000E+03  9.99900E-01     35   1     1     11  0.00000E+00
  1     54  7.99586E+03  7.50280E+03  1.00000E+00  1.10733E+04  2.90000E+03  7.56000E+03  9.99900E-01     35   1     1     11  0.00000E+00
  1     54  7.98267E+03  7.28781E+03  1.00000E+00  1.01667E+04  3.10000E+03  7.36000E+03  9.99900E-01     35   1     1     11  0.00000E+00
  1     54  7.98267E+03  7.50793E+03  1.00000E+00  1.01667E+04  3.10000E+03  7.56000E+03  9.99900E-01     35   1     1     11  0.00000E+00
  1     54  7.97103E+03  7.29374E+03  1.00000E+00  9.42827E+03  3.27500E+03  7.36000E+03  9.99900E-01     36   1     1     11  0.00000E+00
  1     54  7.97103E+03  7.51221E+03  1.00000E+00  9.42827E+03  3.27500E+03  7.56000E+03  9.99900E-01     36   1     1     11  0.00000E+00
  1     54  7.96099E+03  7.29869E+03  1.00000E+00  8.83252E+03  3.42500E+03  7.36000E+03  9.99900E-01     36   1     1     11  0.00000E+00
  1     54  7.96099E+03  7.51577E+03  1.00000E+00  8.83252E+03  3.42500E+03  7.56000E+03  9.99900E-01     36   1     1     11  0.00000E+00
  1     54  7.95257E+03  7.30265E+03  1.00000E+00  8.35921E+03  3.55000E+03  7.36000E+03  9.99900E-01     37   1     1     11  0.00000E+00
  1     54  7.95257E+03  7.51863E+03  1.00000E+00  8.35921E+03  3.55000E+03  7.56000E+03  9.99900E-01     37   1     1     11  0.00000E+00
  1     54  7.94581E+03  7.30575E+03  1.00000E+00  7.99527E+03  3.65000E+03  7.36000E+03  9.99900E-01     37   1     1     11  0.00000E+00
  1     54  7.94581E+03  7.52086E+03  1.00000E+00  7.99527E+03  3.65000E+03  7.56000E+03  9.99900E-01     37   1     1     11  0.00000E+00
  1     54  7.93986E+03  7.30838E+03  1.00000E+00  7.68661E+03  3.73750E+03  7.36000E+03  9.99900E-01     38   1     1     11  0.00000E+00
  1     54  7.93986E+03  7.52276E+03  1.00000E+00  7.68661E+03  3.73750E+03  7.56000E+03  9.99900E-01     38   1     1     11  0.00000E+00
  1     54  7.93476E+03  7.31060E+03  1.00000E+00  7.42924E+03  3.81250E+03  7.36000E+03  9.99900E-01     38   1     1     11  0.00000E+00
  1     54  7.93476E+03  7.52435E+03  1.00000E+00  7.42924E+03  3.81250E+03  7.56000E+03  9.99900E-01     38   1     1     11  0.00000E+00
  1     54  7.93049E+03  7.31240E+03  1.00000E+00  7.21949E+03  3.87500E+03  7.36000E+03  9.99900E-01     39   1     1     11  0.00000E+00
  1     54  7.93049E+03  7.52565E+03  1.00000E+00  7.21949E+03  3.87500E+03  7.56000E+03  9.99900E-01     39   1     1     11  0.00000E+00
  1     54  7.92706E+03  7.31382E+03  1.00000E+00  7.05482E+03  3.92500E+03  7.36000E+03  9.99900E-01     39   1     1     11  0.00000E+00
  1     54  7.92706E+03  7.52667E+03  1.00000E+00  7.05482E+03  3.92500E+03  7.56000E+03  9.99900E-01     39   1     1     11  0.00000E+00
  1     54  7.92432E+03  7.31494E+03  1.00000E+00  6.92496E+03  3.96500E+03  7.36000E+03  9.99900E-01     40   1     1     11  0.00000E+00
  1     54  7.92432E+03  7.52747E+03  1.00000E+00  6.92496E+03  3.96500E+03  7.56000E+03  9.99900E-01     40   1     1     11  0.00000E+00
  1     54  7.92226E+03  7.31576E+03  1.00000E+00  6.82870E+03  3.99500E+03  7.36000E+03  9.99900E-01     40   1     1     11  0.00000E+00
  1     54  7.92226E+03  7.52807E+03  1.00000E+00  6.82870E+03  3.99500E+03  7.56000E+03  9.99900E-01     40   1     1     11  0.00000E+00
  1     54  7.92054E+03  7.31645E+03  1.00000E+00  6.74917E+03  4.02000E+03  7.36000E+03  9.99900E-01     41   1     1     11  0.00000E+00
  1     54  7.92054E+03  7.52856E+03  1.00000E+00  6.74917E+03  4.02000E+03  7.56000E+03  9.99900E-01     41   1     1     11  0.00000E+00
  1     54  7.91917E+03  7.31699E+03  1.00000E+00  6.68603E+03  4.04000E+03  7.36000E+03  9.99900E-01     41   1     1     11  0.00000E+00
  1     54  7.91917E+03  7.52895E+03  1.00000E+00  6.68603E+03  4.04000E+03  7.56000E+03  9.99900E-01     41   1     1     11  0.00000E+00
  1     54  7.91745E+03  7.31767E+03  1.00000E+00  6.60768E+03  4.06500E+03  7.36000E+03  9.99900E-01     42   1     1     11  0.00000E+00
  1     54  7.91745E+03  7.52944E+03  1.00000E+00  6.60768E+03  4.06500E+03  7.56000E+03  9.99900E-01     42   1     1     11  0.00000E+00
  1     54  7.91538E+03  7.31847E+03  1.00000E+00  6.51447E+03  4.09500E+03  7.36000E+03  9.99900E-01     42   1     1     11  0.00000E+00
  1     54  7.91538E+03  7.53002E+03  1.00000E+00  6.51447E+03  4.09500E+03  7.56000E+03  9.99900E-01     42   1     1     11  0.00000E+00
  1     54  7.91262E+03  7.31952E+03  1.00000E+00  6.39163E+03  4.13500E+03  7.36000E+03  9.99900E-01     43   1     1     11  0.00000E+00
  1     54  7.91262E+03  7.53077E+03  1.00000E+00  6.39163E+03  4.13500E+03  7.56000E+03  9.99900E-01     43   1     1     11  0.00000E+00
  1     54  7.90917E+03  7.32082E+03  1.00000E+00  6.24022E+03  4.18500E+03  7.36000E+03  9.99900E-01     43   1     1     11  0.00000E+00
  1     54  7.90917E+03  7.53171E+03  1.00000E+00  6.24022E+03  4.18500E+03  7.56000E+03  9.99900E-01     43   1     1     11  0.00000E+00
  1     54  7.90484E+03  7.32241E+03  1.00000E+00  6.05441E+03  4.24750E+03  7.36000E+03  9.99900E-01     44   1     1     11  0.00000E+00
  1     54  7.90484E+03  7.53285E+03  1.00000E+00  6.05441E+03  4.24750E+03  7.56000E+03  9.99900E-01     44   1     1     11  0.00000E+00
  1     54  7.89964E+03  7.32426E+03  1.00000E+00  5.83617E+03  4.32250E+03  7.36000E+03  9.99900E-01     44   1     1     11  0.00000E+00
  1     54  7.89964E+03  7.53419E+03  1.00000E+00  5.83617E+03  4.32250E+03  7.56000E+03  9.99900E-01     44   1     1     11  0.00000E+00
  1     54  7.89355E+03  7.32636E+03  1.00000E+00  5.58812E+03  4.41000E+03  7.36000E+03  9.99900E-01     45   1     1     11  0.00000E+00
  1     54  7.89355E+03  7.53569E+03  1.00000E+00  5.58812E+03  4.41000E+03  7.56000E+03  9.99900E-01     45   1     1     11  0.00000E+00
  1     54  7.88657E+03  7.32866E+03  1.00000E+00  5.31281E+03  4.51000E+03  7.36000E+03  9.99900E-01     45   1     1     11  0.00000E+00
  1     54  7.88657E+03  7.53736E+03  1.00000E+00  5.31281E+03  4.51000E+03  7.56000E+03  9.99900E-01     45   1     1     11  0.00000E+00
  1     54  7.87782E+03  7.33139E+03  1.00000E+00  4.98098E+03  4.63500E+03  7.36000E+03  9.99900E-01     46   1     1     11  0.00000E+00
  1     54  7.87782E+03  7.53932E+03  1.00000E+00  4.98098E+03  4.63500E+03  7.56000E+03  9.99900E-01     46   1     1     11  0.00000E+00
  1     54  7.86728E+03  7.33448E+03  1.00000E+00  4.59935E+03  4.78500E+03  7.36000E+03  9.99900E-01     46   1     1     11  0.00000E+00
  1     54  7.86728E+03  7.54155E+03  1.00000E+00  4.59935E+03  4.78500E+03  7.56000E+03  9.99900E-01     46   1     1     11  0.00000E+00
  1     54  7.85493E+03  7.33778E+03  1.00000E+00  4.17671E+03  4.96000E+03  7.36000E+03  9.99900E-01     47   1     1     11  0.00000E+00
  1     54  7.85493E+03  7.54392E+03  1.00000E+00  4.17671E+03  4.96000E+03  7.56000E+03  9.99900E-01     47   1     1     11  0.00000E+00
  1     54  7.84075E+03  7.34122E+03  1.00000E+00  3.72122E+03  5.16000E+03  7.36000E+03  9.99900E-01     47   1     1     11  0.00000E+00
  1     54  7.84075E+03  7.54640E+03  1.00000E+00  3.72122E+03  5.16000E+03  7.56000E+03  9.99900E-01     47   1     1     11  0.00000E+00
  1     54  7.82650E+03  7.34428E+03  1.00000E+00  3.29350E+03  5.36000E+03  7.36000E+03  9.99900E-01     48   1     1     11  0.00000E+00
  1     54  7.82650E+03  7.54861E+03  1.00000E+00  3.29350E+03  5.36000E+03  7.56000E+03  9.99900E-01     48   1     1     11  0.00000E+00
  1     54  7.81220E+03  7.34699E+03  1.00000E+00  2.89269E+03  5.56000E+03  7.36000E+03  9.99900E-01     48   1     1     11  0.00000E+00
  1     54  7.81220E+03  7.55057E+03  1.00000E+00  2.89269E+03  5.56000E+03  7.56000E+03  9.99900E-01     48   1     1     11  0.00000E+00
  1     54  7.79785E+03  7.34937E+03  1.00000E+00  2.51689E+03  5.76000E+03  7.36000E+03  9.99900E-01     49   1     1     11  0.00000E+00
  1     54  7.79785E+03  7.55229E+03  1.00000E+00  2.51689E+03  5.76000E+03  7.56000E+03  9.99900E-01     49   1     1     11  0.00000E+00
  1     54  7.78346E+03  7.35144E+03  1.00000E+00  2.16541E+03  5.96000E+03  7.36000E+03  9.99900E-01     49   1     1     11  0.00000E+00
  1     54  7.78346E+03  7.55379E+03  1.00000E+00  2.16541E+03  5.96000E+03  7.56000E+03  9.99900E-01     49   1     1     11  0.00000E+00
  1     54  7.76902E+03  7.35323E+03  1.00000E+00  1.83658E+03  6.16000E+03  7.36000E+03  9.99900E-01     50   1     1     11  0.00000E+00
  1     54  7.76902E+03  7.55509E+03  1.00000E+00  1.83658E+03  6.16000E+03  7.56000E+03  9.99900E-01     50   1     1     11  0.00000E+00
  1     54  7.75456E+03  7.35476E+03  1.00000E+00  1.52982E+03  6.36000E+03  7.36000E+03  9.99900E-01     50   1     1     11  0.00000E+00
  1     54  7.75456E+03  7.55619E+03  1.00000E+00  1.52982E+03  6.36000E+03  7.56000E+03  9.99900E-01     50   1     1     11  0.00000E+00
  1     54  7.74007E+03  7.35605E+03  1.00000E+00  1.24362E+03  6.56000E+03  7.36000E+03  9.99900E-01     51   1     1     11  0.00000E+00
  1     54  7.74007E+03  7.55713E+03  1.00000E+00  1.24362E+03  6.56000E+03  7.56000E+03  9.99900E-01     51   1     1     11  0.00000E+00
  1     54  7.72555E+03  7.35714E+03  1.00000E+00  9.77496E+02  6.76000E+03  7.36000E+03  9.99900E-01     51   1     1     11  0.00000E+00
  1     54  7.72555E+03  7.55792E+03  1.00000E+00  9.77496E+02  6.76000E+03  7.56000E+03  9.99900E-01     51   1     1     11  0.00000E+00
  1     54  7.71102E+03  7.35804E+03  1.00000E+00  7.30083E+02  6.96000E+03  7.36000E+03  9.99900E-01     52   1     1     11  0.00000E+00
  1     54  7.71102E+03  7.55857E+03  1.00000E+00  7.30083E+02  6.96000E+03  7.56000E+03  9.99900E-01     52   1     1     11  0.00000E+00
  1     54  7.69647E+03  7.35877E+03  1.00000E+00  5.00924E+02  7.16000E+03  7.36000E+03  9.99900E-01     52   1     1     11  0.00000E+00
  1     54  7.69647E+03  7.55910E+03  1.00000E+00  5.00924E+02  7.16000E+03  7.56000E+03  9.99900E-01     52   1     1     11  0.00000E+00
  1     54  7.68190E+03  7.35935E+03  1.00000E+00  2.88815E+02  7.36000E+03  7.36000E+03  9.99900E-01     53   1     1     11  0.00000E+00
  1     54  7.68190E+03  7.55952E+03  1.00000E+00  2.88815E+02  7.36000E+03  7.56000E+03  9.99900E-01     53   1     1     11  0.00000E+00
  1     54  7.66733E+03  7.35979E+03  1.00000E+00  9.33169E+01  7.56000E+03  7.36000E+03  9.99900E-01     53   1     1     11  0.00000E+00
  1     54  7.66733E+03  7.55985E+03  1.00000E+00  9.33169E+01  7.56000E+03  7.56000E+03  9.99900E-01     53   1     1     11  0.00000E+00
  1     54  7.76003E+03  7.36000E+03  1.00000E+00  3.08587E-02  7.76000E+03  7.36000E+03  9.99900E-01     54   1     1     11  0.00000E+00
  1     54  7.76003E+03  7.56000E+03  1.00000E+00  3.08587E-02  7.76000E+03  7.56000E+03  9.99900E-01     54   1     1     11  0.00000E+00
  1     54  7.96001E+03  7.36000E+03  1.00000E+00  3.08587E-02  7.96000E+03  7.36000E+03  9.99900E-01     54   1     1     11  0.00000E+00