@ [ MODPATH Version 4.00 (V4, Release 2, 4-2001) (TREF=   0.000000E+00 ) ]
  2   14   14    4  4.01000E+03  4.03000E+03  6.50292E+01  3.00584E-01  3.53120E+04  3.83000E+02  4.03000E+03  9.99000E-01    1   14    1   1     1     11  0.00000E+00
  2   14   14    4  4.01000E+03  4.03000E+03  7.81874E+01  5.63748E-01  2.31750E+04  7.66000E+02  4.03000E+03  9.99000E-01    2   14    1   1     1     11  0.00000E+00
  2   14   14    4  4.01000E+03  4.02999E+03  8.84581E+01  7.69162E-01  1.69505E+04  1.14900E+03  4.03000E+03  9.99000E-01    3   14    1   1     1     11  0.00000E+00
  2   14   14    4  4.01000E+03  4.02999E+03  9.55521E+01  9.11043E-01  1.32535E+04  1.53200E+03  4.03000E+03  9.99000E-01    4   14    1   1     1     11  0.00000E+00
  2   14   14    4  4.01000E+03  4.02997E+03  9.92799E+01  9.85599E-01  1.07775E+04  1.91500E+03  4.03000E+03  9.99000E-01    5   14    1   1     1     11  0.00000E+00
  2   14   14    4  4.04078E+03  4.02997E+03  1.00000E+02  1.00000E+00  9.36930E+03  2.29800E+03  4.03000E+03  9.99000E-01    6   14    1   1     1     11  0.00000E+00
  2   14   14    4  4.05000E+03  4.02999E+03  9.66594E+01  9.33188E-01  1.06769E+04  2.68100E+03  4.03000E+03  9.99000E-01    7   14    1   1     1     11  0.00000E+00
  2   14   14    4  4.05000E+03  4.03000E+03  8.03609E+01  6.07219E-01  2.23492E+04  3.06400E+03  4.03000E+03  9.99000E-01    8   14    1   1     1     11  0.00000E+00
  1   27   14    1  7.98743E+03  4.02998E+03  2.83272E+02  1.00000E+00  8.96120E+03  3.44700E+03  4.03000E+03  9.99000E-01    9   14    1   1     1     11  0.00000E+00
  1   27   14    1  7.95423E+03  4.03003E+03  2.83272E+02  1.00000E+00  7.57509E+03  3.83000E+03  4.03000E+03  9.99000E-01   11   14    1   1     1     11  0.00000E+00
  1   27   14    1  7.92223E+03  4.03006E+03  2.83272E+02  1.00000E+00  6.33999E+03  4.21300E+03  4.03000E+03  9.99000E-01   17   14    1   1     1     11  0.00000E+00
  1   27   14    1  7.89132E+03  4.03006E+03  2.83272E+02  1.00000E+00  5.23086E+03  4.59600E+03  4.03000E+03  9.99000E-01   19   14    1   1     1     11  0.00000E+00
  1   27   14    1  7.86124E+03  4.03005E+03  2.83272E+02  1.00000E+00  4.24241E+03  4.97900E+03  4.03000E+03  9.99000E-01   20   14    1   1     1     11  0.00000E+00
  1   27   14    1  7.83176E+03  4.03004E+03  2.83272E+02  1.00000E+00  3.36690E+03  5.36200E+03  4.03000E+03  9.99000E-01   21   14    1   1     1     11  0.00000E+00
  1   27   14    1  7.80270E+03  4.03003E+03  2.83272E+02  1.00000E+00  2.59632E+03  5.74500E+03  4.03000E+03  9.99000E-01   22   14    1   1     1     11  0.00000E+00
  1   27   14    1  7.77394E+03  4.03002E+03  2.83272E+02  1.00000E+00  1.92116E+03  6.12800E+03  4.03000E+03  9.99000E-01   23   14    1   1     1     11  0.00000E+00
  1   27   14    1  7.74538E+03  4.03002E+03  2.83272E+02  1.00000E+00  1.33209E+03  6.51100E+03  4.03000E+03  9.99000E-01   24   14    1   1     1     11  0.00000E+00
  1   27   14    1  7.71696E+03  4.03001E+03  2.83272E+02  1.00000E+00  8.20547E+02  6.89400E+03  4.03000E+03  9.99000E-01   25   14    1   1     1     11  0.00000E+00
  1   27   14    1  7.68864E+03  4.03000E+03  2.83272E+02  1.00000E+00  3.78870E+02  7.27700E+03  4.03000E+03  9.99000E-01   26   14    1   1     1     11  0.00000E+00
  1   27   14    1  7.66040E+03  4.03000E+03  2.83272E+02  1.00000E+00  6.83472E-01  7.65960E+03  4.03000E+03  9.99000E-01   26   14    1   1     1     11  0.00000E+00
