@ [ MODPATH 5.0 (TREF=   0.193450E+06 ) ]
  2   14   14    4  4.04141E+03  4.05000E+03  5.03082E+01  6.16302E-03  1.30637E+05  1.00000E+02  7.76000E+03  9.99900E-01    1    1    1   1    10    101  0.00000E+00
  2   14   14    4  4.04869E+03  4.04060E+03  5.00000E+01  0.00000E+00  1.66191E+05  1.00000E+02  7.96000E+03  9.99900E-01    1    1    1   1    10    101  0.00000E+00
  2   14   14    4  4.04447E+03  4.05000E+03  5.18444E+01  3.68877E-02  1.03548E+05  3.00000E+02  7.76000E+03  9.99900E-01    1    1    1   1    10    101  0.00000E+00
  2   14   14    4  4.05000E+03  4.04014E+03  5.04617E+01  9.23424E-03  1.51206E+05  3.00000E+02  7.96000E+03  9.99900E-01    1    1    1   1    10    101  0.00000E+00
  2   14   14    4  4.04654E+03  4.05000E+03  5.32423E+01  6.48457E-02  9.15954E+04  5.00000E+02  7.76000E+03  9.99900E-01    2    1    1   1    10    101  0.00000E+00
  2   14   14    4  4.05000E+03  4.03748E+03  5.08849E+01  1.76972E-02  1.51427E+05  5.00000E+02  7.96000E+03  9.99900E-01    2    1    1   1    10    101  0.00000E+00
  2   14   14    4  4.04864E+03  4.05000E+03  5.48409E+01  9.68183E-02  8.38496E+04  7.00000E+02  7.76000E+03  9.99900E-01    2    1    1   1    10    101  0.00000E+00
  2   14   14    4  4.05000E+03  4.03468E+03  5.11936E+01  2.38725E-02  1.58490E+05  7.00000E+02  7.96000E+03  9.99900E-01    2    1    1   1    10    101  0.00000E+00
  2   14   14    4  4.04991E+03  4.05000E+03  5.63167E+01  1.26335E-01  7.93795E+04  9.00000E+02  7.76000E+03  9.99900E-01    3    1    1   1    10    101  0.00000E+00
  2   14   14    4  4.05000E+03  4.03223E+03  5.15663E+01  3.13263E-02  1.83795E+05  9.00000E+02  7.96000E+03  9.99900E-01    3    1    1   1    10    101  0.00000E+00
  2   14   14    4  4.05000E+03  4.04847E+03  5.72713E+01  1.45426E-01  7.55570E+04  1.10000E+03  7.76000E+03  9.99900E-01    3    1    1   1    10    101  0.00000E+00
  2   14   14    4  4.05000E+03  4.03053E+03  5.23830E+01  4.76593E-02  2.54026E+05  1.10000E+03  7.96000E+03  9.99900E-01    3    1    1   1    10    101  0.00000E+00
  2   14   14    4  4.05000E+03  4.04683E+03  5.80330E+01  1.60660E-01  7.25887E+04  1.30000E+03  7.76000E+03  9.99900E-01    4    1    1   1    10    101  0.00000E+00
  1   27   12    1  8.04794E+03  4.15015E+03  2.81958E+02  1.00000E+00  3.13659E+05  1.30000E+03  7.96000E+03  9.99900E-01    4    1    1   1    10    101  0.00000E+00
  2   14   14    4  4.05000E+03  4.04557E+03  5.86567E+01  1.73135E-01  7.31457E+04  1.50000E+03  7.76000E+03  9.99900E-01    4    1    1   1    10    101  0.00000E+00
  1   27   10    1  8.05122E+03  4.39902E+03  2.81963E+02  1.00000E+00  2.57566E+05  1.50000E+03  7.96000E+03  9.99900E-01    4    1    1   1    10    101  0.00000E+00
  2   14   14    4  4.05000E+03  4.04394E+03  5.92910E+01  1.85820E-01  7.26781E+04  1.70000E+03  7.76000E+03  9.99900E-01    5    1    1   1    10    101  0.00000E+00
  1   27    9    1  8.05284E+03  4.71236E+03  2.81972E+02  1.00000E+00  2.24927E+05  1.70000E+03  7.96000E+03  9.99900E-01    5    1    1   1    10    101  0.00000E+00
  2   14   14    4  4.05000E+03  4.04195E+03  5.98462E+01  1.96923E-01  7.49287E+04  1.90000E+03  7.76000E+03  9.99900E-01    5    1    1   1    10    101  0.00000E+00
  1   27    8    1  8.05380E+03  5.07380E+03  2.81989E+02  1.00000E+00  2.00900E+05  1.90000E+03  7.96000E+03  9.99900E-01    5    1    1   1    10    101  0.00000E+00
  2   14   14    4  4.05000E+03  4.03969E+03  5.99459E+01  1.98917E-01  7.92945E+04  2.10000E+03  7.76000E+03  9.99900E-01    6    1    1   1    10    101  0.00000E+00
  1   27    7    1  8.05433E+03  5.50657E+03  2.82014E+02  1.00000E+00  1.79318E+05  2.10000E+03  7.96000E+03  9.99900E-01    6    1    1   1    10    101  0.00000E+00
  2   14   14    4  4.05000E+03  4.03725E+03  5.99160E+01  1.98321E-01  8.74213E+04  2.30000E+03  7.76000E+03  9.99900E-01    6    1    1   1    10    101  0.00000E+00
  1   27    6    1  8.05421E+03  5.92135E+03  2.82043E+02  1.00000E+00  1.61620E+05  2.30000E+03  7.96000E+03  9.99900E-01    6    1    1   1    10    101  0.00000E+00
  2   14   14    4  4.05000E+03  4.03462E+03  5.91950E+01  1.83901E-01  1.01111E+05  2.50000E+03  7.76000E+03  9.99900E-01    7    1    1   1    10    101  0.00000E+00
  1   27    5    1  8.05358E+03  6.29399E+03  2.82071E+02  1.00000E+00  1.46495E+05  2.50000E+03  7.96000E+03  9.99900E-01    7    1    1   1    10    101  0.00000E+00
  2   14   14    4  4.05000E+03  4.03127E+03  5.94778E+01  1.89557E-01  1.60303E+05  2.70000E+03  7.76000E+03  9.99900E-01    7    1    1   1    10    101  0.00000E+00
  1   27    4    1  8.05252E+03  6.64454E+03  2.82096E+02  1.00000E+00  1.31707E+05  2.70000E+03  7.96000E+03  9.99900E-01    7    1    1   1    10    101  0.00000E+00
  1   27    9    1  8.04293E+03  4.62412E+03  2.81972E+02  1.00000E+00  1.60442E+05  2.90000E+03  7.76000E+03  9.99900E-01    8    1    1   1    10    101  0.00000E+00
  1   27    3    1  8.05099E+03  6.95782E+03  2.82117E+02  1.00000E+00  1.16912E+05  2.90000E+03  7.96000E+03  9.99900E-01    8    1    1   1    10    101  0.00000E+00
  1   27    7    1  8.04545E+03  5.52093E+03  2.82014E+02  1.00000E+00  1.15221E+05  3.10000E+03  7.76000E+03  9.99900E-01    8    1    1   1    10    101  0.00000E+00
  1   27    3    1  8.04875E+03  7.23609E+03  2.82117E+02  1.00000E+00  1.00661E+05  3.10000E+03  7.96000E+03  9.99900E-01    8    1    1   1    10    101  0.00000E+00
  1   27    6    1  8.04432E+03  6.01398E+03  2.82043E+02  1.00000E+00  9.85583E+04  3.27500E+03  7.76000E+03  9.99900E-01    9    1    1   1    10    101  0.00000E+00
  1   27    2    1  8.04598E+03  7.40209E+03  2.82132E+02  1.00000E+00  8.94554E+04  3.27500E+03  7.96000E+03  9.99900E-01    9    1    1   1    10    101  0.00000E+00
  1   27    5    1  8.04223E+03  6.39603E+03  2.82071E+02  1.00000E+00  8.51801E+04  3.42500E+03  7.76000E+03  9.99900E-01    9    1    1   1    10    101  0.00000E+00
  1   27    2    1  8.04303E+03  7.52426E+03  2.82132E+02  1.00000E+00  7.91018E+04  3.42500E+03  7.96000E+03  9.99900E-01    9    1    1   1    10    101  0.00000E+00
  1   27    4    1  8.03979E+03  6.72581E+03  2.82096E+02  1.00000E+00  7.48536E+04  3.55000E+03  7.76000E+03  9.99900E-01   10    1    1   1    10    101  0.00000E+00
  1   27    2    1  8.04010E+03  7.63322E+03  2.82132E+02  1.00000E+00  7.00823E+04  3.55000E+03  7.96000E+03  9.99900E-01   10    1    1   1    10    101  0.00000E+00
  1   27    3    1  8.03717E+03  6.92963E+03  2.82117E+02  1.00000E+00  6.51163E+04  3.65000E+03  7.76000E+03  9.99900E-01   10    1    1   1    10    101  0.00000E+00
  1   27    1    1  8.03720E+03  7.69108E+03  2.82139E+02  1.00000E+00  6.24882E+04  3.65000E+03  7.96000E+03  9.99900E-01   10    1    1   1    10    101  0.00000E+00
  1   27    3    1  8.03424E+03  7.07532E+03  2.82117E+02  1.00000E+00  5.85682E+04  3.73750E+03  7.76000E+03  9.99900E-01   11    1    1   1    10    101  0.00000E+00
  1   27    1    1  8.03422E+03  7.73849E+03  2.82139E+02  1.00000E+00  5.64025E+04  3.73750E+03  7.96000E+03  9.99900E-01   11    1    1   1    10    101  0.00000E+00
  1   27    3    1  8.03150E+03  7.18926E+03  2.82117E+02  1.00000E+00  5.15407E+04  3.81250E+03  7.76000E+03  9.99900E-01   11    1    1   1    10    101  0.00000E+00
  1   27    1    1  8.03130E+03  7.77574E+03  2.82139E+02  1.00000E+00  5.33367E+04  3.81250E+03  7.96000E+03  9.99900E-01   11    1    1   1    10    101  0.00000E+00
  1   27    2    1  8.02897E+03  7.29501E+03  2.82132E+02  1.00000E+00  5.75744E+04  3.87500E+03  7.76000E+03  9.99900E-01   12    1    1   1    10    101  0.00000E+00
  1   27    1    1  8.02855E+03  7.81283E+03  2.82139E+02  1.00000E+00  5.50723E+04  3.87500E+03  7.96000E+03  9.99900E-01   12    1    1   1    10    101  0.00000E+00
  1   27    2    1  8.02646E+03  7.42046E+03  2.82132E+02  1.00000E+00  7.16539E+04  3.92500E+03  7.76000E+03  9.99900E-01   12    1    1   1    10    101  0.00000E+00
  1   27    1    1  8.02595E+03  7.85887E+03  2.82139E+02  1.00000E+00  6.72698E+04  3.92500E+03  7.96000E+03  9.99900E-01   12    1    1   1    10    101  0.00000E+00
  1   27    2    1  8.02406E+03  7.48756E+03  2.82132E+02  1.00000E+00  1.18170E+04  3.96500E+03  7.76000E+03  9.99900E-01   13    1    1   1    10    101  0.00000E+00
  1   27    1    1  8.02350E+03  7.86987E+03  2.82139E+02  1.00000E+00  1.17341E+04  3.96500E+03  7.96000E+03  9.99900E-01   13    1    1   1    10    101  0.00000E+00
  1   27    2    1  8.02220E+03  7.49430E+03  2.82132E+02  1.00000E+00  1.16525E+04  3.99500E+03  7.76000E+03  9.99900E-01   13    1    1   1    10    101  0.00000E+00
  1   27    1    1  8.02164E+03  7.87208E+03  2.82139E+02  1.00000E+00  1.15716E+04  3.99500E+03  7.96000E+03  9.99900E-01   13    1    1   1    10    101  0.00000E+00
  1   27    2    1  8.02063E+03  7.49983E+03  2.82132E+02  1.00000E+00  1.15166E+04  4.02000E+03  7.76000E+03  9.99900E-01   14    1    1   1    10    101  0.00000E+00
  1   27    1    1  8.02007E+03  7.87389E+03  2.82139E+02  1.00000E+00  1.14375E+04  4.02000E+03  7.96000E+03  9.99900E-01   14    1    1   1    10    101  0.00000E+00
  1   27    2    1  8.01936E+03  7.50420E+03  2.82132E+02  1.00000E+00  1.14086E+04  4.04000E+03  7.76000E+03  9.99900E-01   14    1    1   1    10    101  0.00000E+00
  1   27    1    1  8.01880E+03  7.87532E+03  2.82139E+02  1.00000E+00  1.13310E+04  4.04000E+03  7.96000E+03  9.99900E-01   14    1    1   1    10    101  0.00000E+00
  1   27    2    1  8.01776E+03  7.50957E+03  2.82132E+02  1.00000E+00  1.12747E+04  4.06500E+03  7.76000E+03  9.99900E-01   15    1    1   1    10    101  0.00000E+00
  1   27    1    1  8.01720E+03  7.87709E+03  2.82139E+02  1.00000E+00  1.11990E+04  4.06500E+03  7.96000E+03  9.99900E-01   15    1    1   1    10    101  0.00000E+00
  1   27    2    1  8.01582E+03  7.51592E+03  2.82132E+02  1.00000E+00  1.11153E+04  4.09500E+03  7.76000E+03  9.99900E-01   15    1    1   1    10    101  0.00000E+00
  1   27    1    1  8.01526E+03  7.87917E+03  2.82139E+02  1.00000E+00  1.10419E+04  4.09500E+03  7.96000E+03  9.99900E-01   15    1    1   1    10    101  0.00000E+00
  1   27    2    1  8.01320E+03  7.52421E+03  2.82132E+02  1.00000E+00  1.09053E+04  4.13500E+03  7.76000E+03  9.99900E-01   16    1    1   1    10    101  0.00000E+00
  1   27    1    1  8.01264E+03  7.88189E+03  2.82139E+02  1.00000E+00  1.08349E+04  4.13500E+03  7.96000E+03  9.99900E-01   16    1    1   1    10    101  0.00000E+00
  1   27    2    1  8.00986E+03  7.53428E+03  2.82132E+02  1.00000E+00  1.06463E+04  4.18500E+03  7.76000E+03  9.99900E-01   16    1    1   1    10    101  0.00000E+00
  1   27    1    1  8.00931E+03  7.88520E+03  2.82139E+02  1.00000E+00  1.05798E+04  4.18500E+03  7.96000E+03  9.99900E-01   16    1    1   1    10    101  0.00000E+00
  1   27    2    1  8.00560E+03  7.54641E+03  2.82132E+02  1.00000E+00  1.03281E+04  4.24750E+03  7.76000E+03  9.99900E-01   17    1    1   1    10    101  0.00000E+00
  1   27    1    1  8.00506E+03  7.88918E+03  2.82139E+02  1.00000E+00  1.02662E+04  4.24750E+03  7.96000E+03  9.99900E-01   17    1    1   1    10    101  0.00000E+00
  1   27    2    1  8.00034E+03  7.56036E+03  2.82132E+02  1.00000E+00  9.95321E+03  4.32250E+03  7.76000E+03  9.99900E-01   17    1    1   1    10    101  0.00000E+00
  1   27    1    1  7.99983E+03  7.89376E+03  2.82139E+02  1.00000E+00  9.89746E+03  4.32250E+03  7.96000E+03  9.99900E-01   17    1    1   1    10    101  0.00000E+00
  1   27    2    1  7.99401E+03  7.57572E+03  2.82132E+02  1.00000E+00  9.52567E+03  4.41000E+03  7.76000E+03  9.99900E-01   18    1    1   1    10    101  0.00000E+00
  1   27    1    1  7.99355E+03  7.89882E+03  2.82139E+02  1.00000E+00  9.47719E+03  4.41000E+03  7.96000E+03  9.99900E-01   18    1    1   1    10    101  0.00000E+00
  1   27    2    1  7.98654E+03  7.59221E+03  2.82132E+02  1.00000E+00  9.04998E+03  4.51000E+03  7.76000E+03  9.99900E-01   18    1    1   1    10    101  0.00000E+00
  1   27    1    1  7.98613E+03  7.90425E+03  2.82139E+02  1.00000E+00  9.00934E+03  4.51000E+03  7.96000E+03  9.99900E-01   18    1    1   1    10    101  0.00000E+00
  1   27    2    1  7.97681E+03  7.61108E+03  2.82132E+02  1.00000E+00  8.47323E+03  4.63500E+03  7.76000E+03  9.99900E-01   19    1    1   1    10    101  0.00000E+00
  1   27    1    1  7.97650E+03  7.91047E+03  2.82139E+02  1.00000E+00  8.44289E+03  4.63500E+03  7.96000E+03  9.99900E-01   19    1    1   1    10    101  0.00000E+00
  1   27    2    1  7.96461E+03  7.63165E+03  2.82132E+02  1.00000E+00  7.80763E+03  4.78500E+03  7.76000E+03  9.99900E-01   19    1    1   1    10    101  0.00000E+00
  1   27    1    1  7.96442E+03  7.91727E+03  2.82139E+02  1.00000E+00  7.78886E+03  4.78500E+03  7.96000E+03  9.99900E-01   19    1    1   1    10    101  0.00000E+00
  1   27    2    1  7.94966E+03  7.65251E+03  2.82132E+02  1.00000E+00  7.06691E+03  4.96000E+03  7.76000E+03  9.99900E-01   20    1    1   1    10    101  0.00000E+00
  1   27    1    1  7.94964E+03  7.92418E+03  2.82139E+02  1.00000E+00  7.06062E+03  4.96000E+03  7.96000E+03  9.99900E-01   20    1    1   1    10    101  0.00000E+00
  1   27    1    1  7.93187E+03  7.67309E+03  2.82139E+02  1.00000E+00  6.27398E+03  5.16000E+03  7.76000E+03  9.99900E-01   20    1    1   1    10    101  0.00000E+00
  1   27    1    1  7.93187E+03  7.93103E+03  2.82139E+02  1.00000E+00  6.27398E+03  5.16000E+03  7.96000E+03  9.99900E-01   20    1    1   1    10    101  0.00000E+00
  1   27    1    1  7.91320E+03  7.69036E+03  2.82139E+02  1.00000E+00  5.53344E+03  5.36000E+03  7.76000E+03  9.99900E-01   21    1    1   1    10    101  0.00000E+00
  1   27    1    1  7.91320E+03  7.93679E+03  2.82139E+02  1.00000E+00  5.53344E+03  5.36000E+03  7.96000E+03  9.99900E-01   21    1    1   1    10    101  0.00000E+00
  1   27    1    1  7.89374E+03  7.70475E+03  2.82139E+02  1.00000E+00  4.84077E+03  5.56000E+03  7.76000E+03  9.99900E-01   21    1    1   1    10    101  0.00000E+00
  1   27    1    1  7.89374E+03  7.94158E+03  2.82139E+02  1.00000E+00  4.84077E+03  5.56000E+03  7.96000E+03  9.99900E-01   21    1    1   1    10    101  0.00000E+00
  1   27    1    1  7.87352E+03  7.71669E+03  2.82139E+02  1.00000E+00  4.19284E+03  5.76000E+03  7.76000E+03  9.99900E-01   22    1    1   1    10    101  0.00000E+00
  1   27    1    1  7.87352E+03  7.94556E+03  2.82139E+02  1.00000E+00  4.19284E+03  5.76000E+03  7.96000E+03  9.99900E-01   22    1    1   1    10    101  0.00000E+00
  1   27    1    1  7.85268E+03  7.72646E+03  2.82139E+02  1.00000E+00  3.59051E+03  5.96000E+03  7.76000E+03  9.99900E-01   22    1    1   1    10    101  0.00000E+00
  1   27    1    1  7.85268E+03  7.94882E+03  2.82139E+02  1.00000E+00  3.59051E+03  5.96000E+03  7.96000E+03  9.99900E-01   22    1    1   1    10    101  0.00000E+00
  1   27    1    1  7.83126E+03  7.73447E+03  2.82139E+02  1.00000E+00  3.03031E+03  6.16000E+03  7.76000E+03  9.99900E-01   23    1    1   1    10    101  0.00000E+00
  1   27    1    1  7.83126E+03  7.95149E+03  2.82139E+02  1.00000E+00  3.03031E+03  6.16000E+03  7.96000E+03  9.99900E-01   23    1    1   1    10    101  0.00000E+00
  1   27    1    1  7.80938E+03  7.74091E+03  2.82139E+02  1.00000E+00  2.51216E+03  6.36000E+03  7.76000E+03  9.99900E-01   23    1    1   1    10    101  0.00000E+00
  1   27    1    1  7.80938E+03  7.95364E+03  2.82139E+02  1.00000E+00  2.51216E+03  6.36000E+03  7.96000E+03  9.99900E-01   23    1    1   1    10    101  0.00000E+00
  1   27    1    1  7.78708E+03  7.74613E+03  2.82139E+02  1.00000E+00  2.03248E+03  6.56000E+03  7.76000E+03  9.99900E-01   24    1    1   1    10    101  0.00000E+00
  1   27    1    1  7.78708E+03  7.95538E+03  2.82139E+02  1.00000E+00  2.03248E+03  6.56000E+03  7.96000E+03  9.99900E-01   24    1    1   1    10    101  0.00000E+00
  1   27    1    1  7.76446E+03  7.75025E+03  2.82139E+02  1.00000E+00  1.59054E+03  6.76000E+03  7.76000E+03  9.99900E-01   24    1    1   1    10    101  0.00000E+00
  1   27    1    1  7.76446E+03  7.95675E+03  2.82139E+02  1.00000E+00  1.59054E+03  6.76000E+03  7.96000E+03  9.99900E-01   24    1    1   1    10    101  0.00000E+00
  1   27    1    1  7.74156E+03  7.75351E+03  2.82139E+02  1.00000E+00  1.18292E+03  6.96000E+03  7.76000E+03  9.99900E-01   25    1    1   1    10    101  0.00000E+00
  1   27    1    1  7.74156E+03  7.95784E+03  2.82139E+02  1.00000E+00  1.18292E+03  6.96000E+03  7.96000E+03  9.99900E-01   25    1    1   1    10    101  0.00000E+00
  1   27    1    1  7.71846E+03  7.75602E+03  2.82139E+02  1.00000E+00  8.08546E+02  7.16000E+03  7.76000E+03  9.99900E-01   25    1    1   1    10    101  0.00000E+00
  1   27    1    1  7.71846E+03  7.95867E+03  2.82139E+02  1.00000E+00  8.08546E+02  7.16000E+03  7.96000E+03  9.99900E-01   25    1    1   1    10    101  0.00000E+00
  1   27    1    1  7.69518E+03  7.75794E+03  2.82139E+02  1.00000E+00  4.64333E+02  7.36000E+03  7.76000E+03  9.99900E-01   26    1    1   1    10    101  0.00000E+00
  1   27    1    1  7.69518E+03  7.95931E+03  2.82139E+02  1.00000E+00  4.64333E+02  7.36000E+03  7.96000E+03  9.99900E-01   26    1    1   1    10    101  0.00000E+00
  1   27    1    1  7.67178E+03  7.75934E+03  2.82139E+02  1.00000E+00  1.49140E+02  7.56000E+03  7.76000E+03  9.99900E-01   26    1    1   1    10    101  0.00000E+00
  1   27    1    1  7.67178E+03  7.95978E+03  2.82139E+02  1.00000E+00  1.49140E+02  7.56000E+03  7.96000E+03  9.99900E-01   26    1    1   1    10    101  0.00000E+00
  2   14   14    4  4.02318E+03  4.05000E+03  5.09035E+01  1.80690E-02  1.05889E+05  1.00000E+02  7.36000E+03  9.99900E-01    1    2    1   1    10    101  0.00000E+00
  2   14   14    4  4.03114E+03  4.05000E+03  5.06736E+01  1.34720E-02  1.16042E+05  1.00000E+02  7.56000E+03  9.99900E-01    1    2    1   1    10    101  0.00000E+00
  2   14   14    4  4.02901E+03  4.05000E+03  5.34118E+01  6.82355E-02  7.95034E+04  3.00000E+02  7.36000E+03  9.99900E-01    1    2    1   1    10    101  0.00000E+00
  2   14   14    4  4.03611E+03  4.05000E+03  5.25247E+01  5.04931E-02  8.89477E+04  3.00000E+02  7.56000E+03  9.99900E-01    1    2    1   1    10    101  0.00000E+00
  2   14   14    4  4.03158E+03  4.05000E+03  5.60707E+01  1.21414E-01  6.69361E+04  5.00000E+02  7.36000E+03  9.99900E-01    2    2    1   1    10    101  0.00000E+00
  2   14   14    4  4.03799E+03  4.05000E+03  5.49244E+01  9.84888E-02  7.62981E+04  5.00000E+02  7.56000E+03  9.99900E-01    2    2    1   1    10    101  0.00000E+00
  2   14   14    4  4.03327E+03  4.05000E+03  5.88097E+01  1.76193E-01  5.86645E+04  7.00000E+02  7.36000E+03  9.99900E-01    2    2    1   1    10    101  0.00000E+00
  2   14   14    4  4.03977E+03  4.05000E+03  5.67987E+01  1.35975E-01  6.80559E+04  7.00000E+02  7.56000E+03  9.99900E-01    2    2    1   1    10    101  0.00000E+00
  2   14   14    4  4.03459E+03  4.05000E+03  6.15768E+01  2.31535E-01  5.25334E+04  9.00000E+02  7.36000E+03  9.99900E-01    3    2    1   1    10    101  0.00000E+00
  2   14   14    4  4.04107E+03  4.05000E+03  5.90044E+01  1.80089E-01  6.22139E+04  9.00000E+02  7.56000E+03  9.99900E-01    3    2    1   1    10    101  0.00000E+00
  2   14   14    4  4.03551E+03  4.05000E+03  6.41224E+01  2.82448E-01  4.75034E+04  1.10000E+03  7.36000E+03  9.99900E-01    3    2    1   1    10    101  0.00000E+00
  2   14   14    4  4.04234E+03  4.05000E+03  6.07641E+01  2.15282E-01  5.76759E+04  1.10000E+03  7.56000E+03  9.99900E-01    3    2    1   1    10    101  0.00000E+00
  2   14   14    4  4.03725E+03  4.05000E+03  6.66108E+01  3.32216E-01  4.38489E+04  1.30000E+03  7.36000E+03  9.99900E-01    4    2    1   1    10    101  0.00000E+00
  2   14   14    4  4.04370E+03  4.05000E+03  6.24983E+01  2.49967E-01  5.43470E+04  1.30000E+03  7.56000E+03  9.99900E-01    4    2    1   1    10    101  0.00000E+00
  2   14   14    4  4.03900E+03  4.05000E+03  6.87057E+01  3.74113E-01  4.10488E+04  1.50000E+03  7.36000E+03  9.99900E-01    4    2    1   1    10    101  0.00000E+00
  2   14   14    4  4.04480E+03  4.05000E+03  6.40076E+01  2.80152E-01  5.12980E+04  1.50000E+03  7.56000E+03  9.99900E-01    4    2    1   1    10    101  0.00000E+00
  2   14   14    4  4.04087E+03  4.05000E+03  7.05809E+01  4.11619E-01  3.87385E+04  1.70000E+03  7.36000E+03  9.99900E-01    5    2    1   1    10    101  0.00000E+00
  2   14   14    4  4.04665E+03  4.05000E+03  6.53841E+01  3.07682E-01  4.95944E+04  1.70000E+03  7.56000E+03  9.99900E-01    5    2    1   1    10    101  0.00000E+00
  2   14   14    4  4.04292E+03  4.05000E+03  7.20898E+01  4.41797E-01  3.73588E+04  1.90000E+03  7.36000E+03  9.99900E-01    5    2    1   1    10    101  0.00000E+00
  2   14   14    4  4.04860E+03  4.05000E+03  6.64394E+01  3.28787E-01  4.89847E+04  1.90000E+03  7.56000E+03  9.99900E-01    5    2    1   1    10    101  0.00000E+00
  2   14   14    4  4.04511E+03  4.05000E+03  7.33245E+01  4.66490E-01  3.63120E+04  2.10000E+03  7.36000E+03  9.99900E-01    6    2    1   1    10    101  0.00000E+00
  2   14   14    4  4.05000E+03  4.04926E+03  6.73144E+01  3.46289E-01  4.82739E+04  2.10000E+03  7.56000E+03  9.99900E-01    6    2    1   1    10    101  0.00000E+00
  2   14   14    4  4.04749E+03  4.05000E+03  7.41829E+01  4.83657E-01  3.64249E+04  2.30000E+03  7.36000E+03  9.99900E-01    6    2    1   1    10    101  0.00000E+00
  2   14   14    4  4.05000E+03  4.04693E+03  6.75396E+01  3.50792E-01  5.03219E+04  2.30000E+03  7.56000E+03  9.99900E-01    6    2    1   1    10    101  0.00000E+00
  2   14   14    4  4.05000E+03  4.04996E+03  7.45395E+01  4.90789E-01  3.66965E+04  2.50000E+03  7.36000E+03  9.99900E-01    7    2    1   1    10    101  0.00000E+00
  2   14   14    4  4.05000E+03  4.04444E+03  6.75511E+01  3.51022E-01  5.19234E+04  2.50000E+03  7.56000E+03  9.99900E-01    7    2    1   1    10    101  0.00000E+00
  2   14   14    4  4.05000E+03  4.04719E+03  7.44820E+01  4.89640E-01  3.86825E+04  2.70000E+03  7.36000E+03  9.99900E-01    7    2    1   1    10    101  0.00000E+00
  2   14   14    4  4.05000E+03  4.04164E+03  6.70949E+01  3.41897E-01  5.74702E+04  2.70000E+03  7.56000E+03  9.99900E-01    7    2    1   1    10    101  0.00000E+00
  2   14   14    4  4.05000E+03  4.04428E+03  7.39473E+01  4.78945E-01  4.15203E+04  2.90000E+03  7.36000E+03  9.99900E-01    8    2    1   1    10    101  0.00000E+00
  2   14   14    4  4.05000E+03  4.03844E+03  6.61021E+01  3.22043E-01  6.41812E+04  2.90000E+03  7.56000E+03  9.99900E-01    8    2    1   1    10    101  0.00000E+00
  2   14   14    4  4.05000E+03  4.04105E+03  7.24586E+01  4.49173E-01  4.79655E+04  3.10000E+03  7.36000E+03  9.99900E-01    8    2    1   1    10    101  0.00000E+00
  2   14   14    4  4.05000E+03  4.03458E+03  6.41328E+01  2.82655E-01  8.47284E+04  3.10000E+03  7.56000E+03  9.99900E-01    8    2    1   1    10    101  0.00000E+00
  2   14   14    4  4.05000E+03  4.03779E+03  7.05755E+01  4.11509E-01  5.50171E+04  3.27500E+03  7.36000E+03  9.99900E-01    9    2    1   1    10    101  0.00000E+00
  1   27   11    1  8.03717E+03  4.30260E+03  2.81960E+02  1.00000E+00  1.66310E+05  3.27500E+03  7.56000E+03  9.99900E-01    9    2    1   1    10    101  0.00000E+00
  2   14   14    4  4.05000E+03  4.03438E+03  6.78596E+01  3.57191E-01  7.42360E+04  3.42500E+03  7.36000E+03  9.99900E-01    9    2    1   1    10    101  0.00000E+00
  1   27    8    1  8.03882E+03  5.05453E+03  2.81989E+02  1.00000E+00  1.10535E+05  3.42500E+03  7.56000E+03  9.99900E-01    9    2    1   1    10    101  0.00000E+00
  2   14   14    4  4.05000E+03  4.03017E+03  6.60214E+01  3.20429E-01  2.12469E+05  3.55000E+03  7.36000E+03  9.99900E-01   10    2    1   1    10    101  0.00000E+00
  1   27    7    1  8.03857E+03  5.65934E+03  2.82014E+02  1.00000E+00  8.71001E+04  3.55000E+03  7.56000E+03  9.99900E-01   10    2    1   1    10    101  0.00000E+00
  1   27    8    1  8.03479E+03  4.92239E+03  2.81989E+02  1.00000E+00  9.72315E+04  3.65000E+03  7.36000E+03  9.99900E-01   10    2    1   1    10    101  0.00000E+00
  1   27    5    1  8.03677E+03  6.09950E+03  2.82071E+02  1.00000E+00  7.10251E+04  3.65000E+03  7.56000E+03  9.99900E-01   10    2    1   1    10    101  0.00000E+00
  1   27    7    1  8.03371E+03  5.49254E+03  2.82014E+02  1.00000E+00  7.44020E+04  3.73750E+03  7.36000E+03  9.99900E-01   11    2    1   1    10    101  0.00000E+00
  1   27    5    1  8.03411E+03  6.35567E+03  2.82071E+02  1.00000E+00  6.30759E+04  3.73750E+03  7.56000E+03  9.99900E-01   11    2    1   1    10    101  0.00000E+00
  1   27    6    1  8.03189E+03  5.80525E+03  2.82043E+02  1.00000E+00  6.34396E+04  3.81250E+03  7.36000E+03  9.99900E-01   11    2    1   1    10    101  0.00000E+00
  1   27    4    1  8.03172E+03  6.55596E+03  2.82096E+02  1.00000E+00  5.51209E+04  3.81250E+03  7.56000E+03  9.99900E-01   11    2    1   1    10    101  0.00000E+00
  1   27    6    1  8.03003E+03  6.05801E+03  2.82043E+02  1.00000E+00  5.80465E+04  3.87500E+03  7.36000E+03  9.99900E-01   12    2    1   1    10    101  0.00000E+00
  1   27    4    1  8.02918E+03  6.72820E+03  2.82096E+02  1.00000E+00  5.09054E+04  3.87500E+03  7.56000E+03  9.99900E-01   12    2    1   1    10    101  0.00000E+00
  1   27    5    1  8.02783E+03  6.29881E+03  2.82071E+02  1.00000E+00  5.88212E+04  3.92500E+03  7.36000E+03  9.99900E-01   12    2    1   1    10    101  0.00000E+00
  1   27    3    1  8.02702E+03  6.91388E+03  2.82117E+02  1.00000E+00  5.08594E+04  3.92500E+03  7.56000E+03  9.99900E-01   12    2    1   1    10    101  0.00000E+00
  1   27    4    1  8.02615E+03  6.55463E+03  2.82096E+02  1.00000E+00  7.32518E+04  3.96500E+03  7.36000E+03  9.99900E-01   13    2    1   1    10    101  0.00000E+00
  1   27    3    1  8.02471E+03  7.09642E+03  2.82117E+02  1.00000E+00  1.19378E+04  3.96500E+03  7.56000E+03  9.99900E-01   13    2    1   1    10    101  0.00000E+00
  1   27    4    1  8.02435E+03  6.70685E+03  2.82096E+02  1.00000E+00  1.19991E+04  3.99500E+03  7.36000E+03  9.99900E-01   13    2    1   1    10    101  0.00000E+00
  1   27    3    1  8.02285E+03  7.10810E+03  2.82117E+02  1.00000E+00  1.17693E+04  3.99500E+03  7.56000E+03  9.99900E-01   13    2    1   1    10    101  0.00000E+00
  1   27    4    1  8.02280E+03  6.72107E+03  2.82096E+02  1.00000E+00  1.18542E+04  4.02000E+03  7.36000E+03  9.99900E-01   14    2    1   1    10    101  0.00000E+00
  1   27    3    1  8.02129E+03  7.11767E+03  2.82117E+02  1.00000E+00  1.16302E+04  4.02000E+03  7.56000E+03  9.99900E-01   14    2    1   1    10    101  0.00000E+00
  1   27    4    1  8.02155E+03  6.73229E+03  2.82096E+02  1.00000E+00  1.17394E+04  4.04000E+03  7.36000E+03  9.99900E-01   14    2    1   1    10    101  0.00000E+00
  1   27    3    1  8.02002E+03  7.12522E+03  2.82117E+02  1.00000E+00  1.15196E+04  4.04000E+03  7.56000E+03  9.99900E-01   14    2    1   1    10    101  0.00000E+00
  1   27    4    1  8.01997E+03  6.74609E+03  2.82096E+02  1.00000E+00  1.15957E+04  4.06500E+03  7.36000E+03  9.99900E-01   15    2    1   1    10    101  0.00000E+00
  1   27    3    1  8.01842E+03  7.13453E+03  2.82117E+02  1.00000E+00  1.13818E+04  4.06500E+03  7.56000E+03  9.99900E-01   15    2    1   1    10    101  0.00000E+00
  1   27    4    1  8.01805E+03  6.76235E+03  2.82096E+02  1.00000E+00  1.14248E+04  4.09500E+03  7.36000E+03  9.99900E-01   15    2    1   1    10    101  0.00000E+00
  1   27    3    1  8.01648E+03  7.14550E+03  2.82117E+02  1.00000E+00  1.12181E+04  4.09500E+03  7.56000E+03  9.99900E-01   15    2    1   1    10    101  0.00000E+00
  1   27    4    1  8.01546E+03  6.78351E+03  2.82096E+02  1.00000E+00  1.12005E+04  4.13500E+03  7.36000E+03  9.99900E-01   16    2    1   1    10    101  0.00000E+00
  1   27    3    1  8.01386E+03  7.15980E+03  2.82117E+02  1.00000E+00  1.10025E+04  4.13500E+03  7.56000E+03  9.99900E-01   16    2    1   1    10    101  0.00000E+00
  1   27    4    1  8.01218E+03  6.80917E+03  2.82096E+02  1.00000E+00  1.09228E+04  4.18500E+03  7.36000E+03  9.99900E-01   16    2    1   1    10    101  0.00000E+00
  1   27    3    1  8.01052E+03  7.17718E+03  2.82117E+02  1.00000E+00  1.07371E+04  4.18500E+03  7.56000E+03  9.99900E-01   16    2    1   1    10    101  0.00000E+00
  1   27    4    1  8.00799E+03  6.83992E+03  2.82096E+02  1.00000E+00  1.05819E+04  4.24750E+03  7.36000E+03  9.99900E-01   17    2    1   1    10    101  0.00000E+00
  1   27    3    1  8.00625E+03  7.19807E+03  2.82117E+02  1.00000E+00  1.04093E+04  4.24750E+03  7.56000E+03  9.99900E-01   17    2    1   1    10    101  0.00000E+00
  1   27    3    1  8.00298E+03  6.87495E+03  2.82117E+02  1.00000E+00  1.01831E+04  4.32250E+03  7.36000E+03  9.99900E-01   17    2    1   1    10    101  0.00000E+00
  1   27    3    1  8.00100E+03  7.22203E+03  2.82117E+02  1.00000E+00  1.00244E+04  4.32250E+03  7.56000E+03  9.99900E-01   17    2    1   1    10    101  0.00000E+00
  1   27    3    1  7.99679E+03  6.91324E+03  2.82117E+02  1.00000E+00  9.74893E+03  4.41000E+03  7.36000E+03  9.99900E-01   18    2    1   1    10    101  0.00000E+00
  1   27    3    1  7.99471E+03  7.24834E+03  2.82117E+02  1.00000E+00  9.58542E+03  4.41000E+03  7.56000E+03  9.99900E-01   18    2    1   1    10    101  0.00000E+00
  1   27    3    1  7.98942E+03  6.95432E+03  2.82117E+02  1.00000E+00  9.26328E+03  4.51000E+03  7.36000E+03  9.99900E-01   18    2    1   1    10    101  0.00000E+00
  1   27    2    1  7.98741E+03  7.27642E+03  2.82132E+02  1.00000E+00  9.10276E+03  4.51000E+03  7.56000E+03  9.99900E-01   18    2    1   1    10    101  0.00000E+00
  1   27    3    1  7.97980E+03  7.00113E+03  2.82117E+02  1.00000E+00  8.67358E+03  4.63500E+03  7.36000E+03  9.99900E-01   19    2    1   1    10    101  0.00000E+00