@ [ MODPATH Version 4.00 (V4, Release 2, 4-2001) (TREF=   0.186150E+06 ) ]
  1    1   21    1  1.04366E+02  2.43113E+03  3.02653E+02  1.00000E+00  6.84780E+04  4.01000E+03  4.01286E+03  7.14286E-02   14   14    4   2     8     11  0.00000E+00
  1    1   21    1  3.10530E+02  2.56885E+03  3.02653E+02  1.00000E+00  4.58015E+04  4.01000E+03  4.01286E+03  2.14286E-01   14   14    4   2     8     11  0.00000E+00
  1    2   21    1  5.24508E+02  2.67507E+03  3.02576E+02  1.00000E+00  3.44985E+04  4.01000E+03  4.01286E+03  3.57143E-01   14   14    4   2     8     11  0.00000E+00
  1    2   20    1  7.43057E+02  2.80133E+03  3.02560E+02  1.00000E+00  2.71397E+04  4.01000E+03  4.01286E+03  5.00000E-01   14   14    4   2     8     11  0.00000E+00
  1    3   20    1  9.87749E+02  2.95866E+03  3.02403E+02  1.00000E+00  2.18297E+04  4.01000E+03  4.01286E+03  6.42857E-01   14   14    4   2     8     11  0.00000E+00
  1    4   20    1  1.24048E+03  3.16158E+03  3.02167E+02  1.00000E+00  1.74873E+04  4.01000E+03  4.01286E+03  7.85714E-01   14   14    4   2     8     11  0.00000E+00
  1    4   19    1  1.57878E+03  3.41631E+03  3.02153E+02  1.00000E+00  1.39197E+04  4.01000E+03  4.01286E+03  9.28571E-01   14   14    4   2     8     11  0.00000E+00
  1    1   20    1  8.76673E+01  2.89570E+03  3.02639E+02  1.00000E+00  6.77013E+04  4.01000E+03  4.01857E+03  7.14286E-02   14   14    4   2     8     11  0.00000E+00
  1    1   20    1  2.74613E+02  3.00310E+03  3.02639E+02  1.00000E+00  4.50556E+04  4.01000E+03  4.01857E+03  2.14286E-01   14   14    4   2     8     11  0.00000E+00
  1    2   20    1  4.68026E+02  3.07777E+03  3.02560E+02  1.00000E+00  3.41924E+04  4.01000E+03  4.01857E+03  3.57143E-01   14   14    4   2     8     11  0.00000E+00
  1    2   20    1  6.73289E+02  3.16931E+03  3.02560E+02  1.00000E+00  2.70323E+04  4.01000E+03  4.01857E+03  5.00000E-01   14   14    4   2     8     11  0.00000E+00
  1    3   19    1  9.08638E+02  3.27437E+03  3.02391E+02  1.00000E+00  2.18151E+04  4.01000E+03  4.01857E+03  6.42857E-01   14   14    4   2     8     11  0.00000E+00
  1    3   19    1  1.17454E+03  3.42237E+03  3.02391E+02  1.00000E+00  1.75299E+04  4.01000E+03  4.01857E+03  7.85714E-01   14   14    4   2     8     11  0.00000E+00
  1    4   18    1  1.51736E+03  3.61870E+03  3.02147E+02  1.00000E+00  1.39434E+04  4.01000E+03  4.01857E+03  9.28571E-01   14   14    4   2     8     11  0.00000E+00
  1    1   19    1  8.00865E+01  3.47346E+03  3.02629E+02  1.00000E+00  6.60313E+04  4.01000E+03  4.02429E+03  7.14286E-02   14   14    4   2     8     11  0.00000E+00
  1    1   19    1  2.48395E+02  3.49980E+03  3.02629E+02  1.00000E+00  4.44577E+04  4.01000E+03  4.02429E+03  2.14286E-01   14   14    4   2     8     11  0.00000E+00
  1    2   18    1  4.28035E+02  3.53202E+03  3.02545E+02  1.00000E+00  3.39760E+04  4.01000E+03  4.02429E+03  3.57143E-01   14   14    4   2     8     11  0.00000E+00
  1    2   18    1  6.27456E+02  3.58207E+03  3.02545E+02  1.00000E+00  2.70437E+04  4.01000E+03  4.02429E+03  5.00000E-01   14   14    4   2     8     11  0.00000E+00
  1    3   18    1  8.52420E+02  3.64118E+03  3.02386E+02  1.00000E+00  2.19217E+04  4.01000E+03  4.02429E+03  6.42857E-01   14   14    4   2     8     11  0.00000E+00
  1    3   17    1  1.11109E+03  3.71283E+03  3.02383E+02  1.00000E+00  1.77878E+04  4.01000E+03  4.02429E+03  7.85714E-01   14   14    4   2     8     11  0.00000E+00
  1    4   17    1  1.46053E+03  3.83384E+03  3.02144E+02  1.00000E+00  1.41070E+04  4.01000E+03  4.02429E+03  9.28571E-01   14   14    4   2     8     11  0.00000E+00
  1    1   14    1  7.93650E+01  4.03035E+03  3.02622E+02  1.00000E+00  6.52012E+04  4.01000E+03  4.03000E+03  7.14286E-02   14   14    4   2     8     11  0.00000E+00
  1    1   14    1  2.44969E+02  4.03029E+03  3.02622E+02  1.00000E+00  4.39225E+04  4.01000E+03  4.03000E+03  2.14286E-01   14   14    4   2     8     11  0.00000E+00
  1    2   14    1  4.16094E+02  4.03028E+03  3.02542E+02  1.00000E+00  3.38225E+04  4.01000E+03  4.03000E+03  3.57143E-01   14   14    4   2     8     11  0.00000E+00
  1    2   14    1  6.06701E+02  4.03026E+03  3.02542E+02  1.00000E+00  2.70979E+04  4.01000E+03  4.03000E+03  5.00000E-01   14   14    4   2     8     11  0.00000E+00
  1    3   14    1  8.24337E+02  4.03025E+03  3.02382E+02  1.00000E+00  2.20889E+04  4.01000E+03  4.03000E+03  6.42857E-01   14   14    4   2     8     11  0.00000E+00
  1    3   14    1  1.08252E+03  4.03023E+03  3.02382E+02  1.00000E+00  1.79762E+04  4.01000E+03  4.03000E+03  7.85714E-01   14   14    4   2     8     11  0.00000E+00
  1    4   14    1  1.44335E+03  4.03022E+03  3.02142E+02  1.00000E+00  1.41639E+04  4.01000E+03  4.03000E+03  9.28571E-01   14   14    4   2     8     11  0.00000E+00
  1    1    9    1  8.01090E+01  4.58736E+03  3.02629E+02  1.00000E+00  6.60293E+04  4.01000E+03  4.03571E+03  7.14286E-02   14   14    4   2     8     11  0.00000E+00
  1    1    9    1  2.48443E+02  4.56082E+03  3.02629E+02  1.00000E+00  4.44564E+04  4.01000E+03  4.03571E+03  2.14286E-01   14   14    4   2     8     11  0.00000E+00
  1    2   10    1  4.28073E+02  4.52850E+03  3.02545E+02  1.00000E+00  3.39751E+04  4.01000E+03  4.03571E+03  3.57143E-01   14   14    4   2     8     11  0.00000E+00
  1    2   10    1  6.27489E+02  4.47841E+03  3.02545E+02  1.00000E+00  2.70432E+04  4.01000E+03  4.03571E+03  5.00000E-01   14   14    4   2     8     11  0.00000E+00
  1    3   10    1  8.52452E+02  4.41927E+03  3.02386E+02  1.00000E+00  2.19215E+04  4.01000E+03  4.03571E+03  6.42857E-01   14   14    4   2     8     11  0.00000E+00
  1    3   11    1  1.11111E+03  4.34760E+03  3.02384E+02  1.00000E+00  1.77877E+04  4.01000E+03  4.03571E+03  7.85714E-01   14   14    4   2     8     11  0.00000E+00
  1    4   11    1  1.46055E+03  4.22658E+03  3.02144E+02  1.00000E+00  1.41070E+04  4.01000E+03  4.03571E+03  9.28571E-01   14   14    4   2     8     11  0.00000E+00
  1    1    8    1  8.76938E+01  5.16506E+03  3.02639E+02  1.00000E+00  6.76976E+04  4.01000E+03  4.04143E+03  7.14286E-02   14   14    4   2     8     11  0.00000E+00
  1    1    8    1  2.74669E+02  5.05747E+03  3.02639E+02  1.00000E+00  4.50536E+04  4.01000E+03  4.04143E+03  2.14286E-01   14   14    4   2     8     11  0.00000E+00
  1    2    8    1  4.68088E+02  4.98271E+03  3.02560E+02  1.00000E+00  3.41912E+04  4.01000E+03  4.04143E+03  3.57143E-01   14   14    4   2     8     11  0.00000E+00
  1    2    8    1  6.73344E+02  4.89111E+03  3.02560E+02  1.00000E+00  2.70318E+04  4.01000E+03  4.04143E+03  5.00000E-01   14   14    4   2     8     11  0.00000E+00
  1    3    9    1  9.08682E+02  4.78602E+03  3.02392E+02  1.00000E+00  2.18148E+04  4.01000E+03  4.04143E+03  6.42857E-01   14   14    4   2     8     11  0.00000E+00
  1    3    9    1  1.17457E+03  4.63800E+03  3.02392E+02  1.00000E+00  1.75297E+04  4.01000E+03  4.04143E+03  7.85714E-01   14   14    4   2     8     11  0.00000E+00
  1    4   10    1  1.51737E+03  4.44168E+03  3.02147E+02  1.00000E+00  1.39433E+04  4.01000E+03  4.04143E+03  9.28571E-01   14   14    4   2     8     11  0.00000E+00
  1    1    7    1  1.04404E+02  5.62947E+03  3.02654E+02  1.00000E+00  6.84738E+04  4.01000E+03  4.04714E+03  7.14286E-02   14   14    4   2     8     11  0.00000E+00
  1    1    7    1  3.10601E+02  5.49160E+03  3.02654E+02  1.00000E+00  4.57992E+04  4.01000E+03  4.04714E+03  2.14286E-01   14   14    4   2     8     11  0.00000E+00
  1    2    7    1  5.24580E+02  5.38532E+03  3.02576E+02  1.00000E+00  3.44971E+04  4.01000E+03  4.04714E+03  3.57143E-01   14   14    4   2     8     11  0.00000E+00
  1    2    8    1  7.43114E+02  5.25903E+03  3.02560E+02  1.00000E+00  2.71389E+04  4.01000E+03  4.04714E+03  5.00000E-01   14   14    4   2     8     11  0.00000E+00
  1    3    8    1  9.87801E+02  5.10168E+03  3.02403E+02  1.00000E+00  2.18292E+04  4.01000E+03  4.04714E+03  6.42857E-01   14   14    4   2     8     11  0.00000E+00
  1    4    8    1  1.24051E+03  4.89875E+03  3.02167E+02  1.00000E+00  1.74872E+04  4.01000E+03  4.04714E+03  7.85714E-01   14   14    4   2     8     11  0.00000E+00
  1    4    9    1  1.57881E+03  4.64402E+03  3.02153E+02  1.00000E+00  1.39195E+04  4.01000E+03  4.04714E+03  9.28571E-01   14   14    4   2     8     11  0.00000E+00
  1    2   26    1  4.14015E+02  6.68098E+02  3.02654E+02  1.00000E+00  8.10121E+04  4.05000E+03  4.01286E+03  7.14286E-02   14   14    4   2     8     11  0.00000E+00
  1    3   25    1  1.07130E+03  9.05247E+02  3.02495E+02  1.00000E+00  5.34235E+04  4.05000E+03  4.01286E+03  2.14286E-01   14   14    4   2     8     11  0.00000E+00
  1    5   24    1  1.66513E+03  1.20721E+03  3.01955E+02  1.00000E+00  3.87974E+04  4.05000E+03  4.01286E+03  3.57143E-01   14   14    4   2     8     11  0.00000E+00
  1    6   23    1  2.08457E+03  1.61931E+03  3.01550E+02  1.00000E+00  2.94511E+04  4.05000E+03  4.01286E+03  5.00000E-01   14   14    4   2     8     11  0.00000E+00
  1    6   22    1  2.34791E+03  2.10097E+03  3.01518E+02  1.00000E+00  2.28147E+04  4.05000E+03  4.01286E+03  6.42857E-01   14   14    4   2     8     11  0.00000E+00
  1    7   21    1  2.49141E+03  2.59335E+03  3.01017E+02  1.00000E+00  1.77854E+04  4.05000E+03  4.01286E+03  7.85714E-01   14   14    4   2     8     11  0.00000E+00
  1    7   20    1  2.48447E+03  3.07591E+03  3.00981E+02  1.00000E+00  1.34022E+04  4.05000E+03  4.01286E+03  9.28571E-01   14   14    4   2     8     11  0.00000E+00
  1    2   26    1  5.28211E+02  6.16464E+02  3.02654E+02  1.00000E+00  8.41036E+04  4.05000E+03  4.01857E+03  7.14286E-02   14   14    4   2     8     11  0.00000E+00
  1    4   25    1  1.32399E+03  9.13488E+02  3.02273E+02  1.00000E+00  5.58004E+04  4.05000E+03  4.01857E+03  2.14286E-01   14   14    4   2     8     11  0.00000E+00
  1    5   24    1  1.96203E+03  1.32351E+03  3.01955E+02  1.00000E+00  4.12518E+04  4.05000E+03  4.01857E+03  3.57143E-01   14   14    4   2     8     11  0.00000E+00
  1    6   23    1  2.35860E+03  1.85702E+03  3.01550E+02  1.00000E+00  3.15525E+04  4.05000E+03  4.01857E+03  5.00000E-01   14   14    4   2     8     11  0.00000E+00
  1    7   21    1  2.60217E+03  2.40229E+03  3.01017E+02  1.00000E+00  2.39114E+04  4.05000E+03  4.01857E+03  6.42857E-01   14   14    4   2     8     11  0.00000E+00
  1    7   20    1  2.69605E+03  2.88270E+03  3.00981E+02  1.00000E+00  1.71947E+04  4.05000E+03  4.01857E+03  7.85714E-01   14   14    4   2     8     11  0.00000E+00
  1    7   19    1  2.65833E+03  3.29219E+03  3.00956E+02  1.00000E+00  1.31469E+04  4.05000E+03  4.01857E+03  9.28571E-01   14   14    4   2     8     11  0.00000E+00
  1    2   26    1  7.23997E+02  6.05719E+02  3.02654E+02  1.00000E+00  9.08063E+04  4.05000E+03  4.02429E+03  7.14286E-02   14   14    4   2     8     11  0.00000E+00
  1    5   25    1  1.67034E+03  1.00979E+03  3.01975E+02  1.00000E+00  6.19268E+04  4.05000E+03  4.02429E+03  2.14286E-01   14   14    4   2     8     11  0.00000E+00
  1    6   23    1  2.33806E+03  1.63931E+03  3.01550E+02  1.00000E+00  4.62472E+04  4.05000E+03  4.02429E+03  3.57143E-01   14   14    4   2     8     11  0.00000E+00
  1    7   22    1  2.71407E+03  2.37989E+03  3.01055E+02  1.00000E+00  3.38359E+04  4.05000E+03  4.02429E+03  5.00000E-01   14   14    4   2     8     11  0.00000E+00
  1    8   20    1  2.84395E+03  2.94355E+03  3.00426E+02  1.00000E+00  2.33574E+04  4.05000E+03  4.02429E+03  6.42857E-01   14   14    4   2     8     11  0.00000E+00
  1    8   19    1  2.88485E+03  3.37186E+03  3.00396E+02  1.00000E+00  1.83630E+04  4.05000E+03  4.02429E+03  7.85714E-01   14   14    4   2     8     11  0.00000E+00
  1    8   18    1  2.80288E+03  3.66141E+03  3.00380E+02  1.00000E+00  1.31827E+04  4.05000E+03  4.02429E+03  9.28571E-01   14   14    4   2     8     11  0.00000E+00
  1    8   14    1  3.14475E+03  4.02106E+03  3.00370E+02  1.00000E+00  1.47638E+05  4.05000E+03  4.03000E+03  7.14286E-02   14   14    4   2     8     11  0.00000E+00
  1    8   14    1  3.14412E+03  4.02988E+03  3.00370E+02  1.00000E+00  8.64599E+04  4.05000E+03  4.03000E+03  2.14286E-01   14   14    4   2     8     11  0.00000E+00
  1    8   14    1  3.13968E+03  4.03015E+03  3.00370E+02  1.00000E+00  4.73709E+04  4.05000E+03  4.03000E+03  3.57143E-01   14   14    4   2     8     11  0.00000E+00
  1    8   14    1  3.12354E+03  4.03017E+03  3.00370E+02  1.00000E+00  3.43368E+04  4.05000E+03  4.03000E+03  5.00000E-01   14   14    4   2     8     11  0.00000E+00
  1    8   14    1  3.08484E+03  4.03015E+03  3.00370E+02  1.00000E+00  2.57044E+04  4.05000E+03  4.03000E+03  6.42857E-01   14   14    4   2     8     11  0.00000E+00
  1    8   14    1  3.01384E+03  4.03016E+03  3.00370E+02  1.00000E+00  1.78492E+04  4.05000E+03  4.03000E+03  7.85714E-01   14   14    4   2     8     11  0.00000E+00
  1    8   14    1  2.85794E+03  4.03017E+03  3.00370E+02  1.00000E+00  1.30471E+04  4.05000E+03  4.03000E+03  9.28571E-01   14   14    4   2     8     11  0.00000E+00
  1    2    2    1  7.24006E+02  7.45417E+03  3.02654E+02  1.00000E+00  9.07998E+04  4.05000E+03  4.03571E+03  7.14286E-02   14   14    4   2     8     11  0.00000E+00
  1    5    3    1  1.67027E+03  7.05009E+03  3.01976E+02  1.00000E+00  6.19235E+04  4.05000E+03  4.03571E+03  2.14286E-01   14   14    4   2     8     11  0.00000E+00
  1    6    5    1  2.33791E+03  6.42067E+03  3.01550E+02  1.00000E+00  4.62461E+04  4.05000E+03  4.03571E+03  3.57143E-01   14   14    4   2     8     11  0.00000E+00
  1    7    6    1  2.71392E+03  5.68018E+03  3.01056E+02  1.00000E+00  3.38354E+04  4.05000E+03  4.03571E+03  5.00000E-01   14   14    4   2     8     11  0.00000E+00
  1    8    8    1  2.84383E+03  5.11658E+03  3.00427E+02  1.00000E+00  2.33575E+04  4.05000E+03  4.03571E+03  6.42857E-01   14   14    4   2     8     11  0.00000E+00
  1    8    9    1  2.88476E+03  4.68832E+03  3.00396E+02  1.00000E+00  1.83631E+04  4.05000E+03  4.03571E+03  7.85714E-01   14   14    4   2     8     11  0.00000E+00
  1    8   10    1  2.80281E+03  4.39886E+03  3.00381E+02  1.00000E+00  1.31828E+04  4.05000E+03  4.03571E+03  9.28571E-01   14   14    4   2     8     11  0.00000E+00
  1    2    2    1  5.28242E+02  7.44343E+03  3.02654E+02  1.00000E+00  8.40969E+04  4.05000E+03  4.04143E+03  7.14286E-02   14   14    4   2     8     11  0.00000E+00
  1    4    3    1  1.32397E+03  7.14639E+03  3.02273E+02  1.00000E+00  5.57968E+04  4.05000E+03  4.04143E+03  2.14286E-01   14   14    4   2     8     11  0.00000E+00
  1    5    4    1  1.96193E+03  6.73641E+03  3.01955E+02  1.00000E+00  4.12502E+04  4.05000E+03  4.04143E+03  3.57143E-01   14   14    4   2     8     11  0.00000E+00
  1    6    5    1  2.35846E+03  6.20296E+03  3.01550E+02  1.00000E+00  3.15520E+04  4.05000E+03  4.04143E+03  5.00000E-01   14   14    4   2     8     11  0.00000E+00
  1    7    7    1  2.60204E+03  5.65777E+03  3.01017E+02  1.00000E+00  2.39112E+04  4.05000E+03  4.04143E+03  6.42857E-01   14   14    4   2     8     11  0.00000E+00
  1    7    8    1  2.69595E+03  5.17741E+03  3.00981E+02  1.00000E+00  1.71947E+04  4.05000E+03  4.04143E+03  7.85714E-01   14   14    4   2     8     11  0.00000E+00
  1    7    9    1  2.65827E+03  4.76800E+03  3.00956E+02  1.00000E+00  1.31469E+04  4.05000E+03  4.04143E+03  9.28571E-01   14   14    4   2     8     11  0.00000E+00
  1    2    2    1  4.14049E+02  7.39181E+03  3.02654E+02  1.00000E+00  8.10052E+04  4.05000E+03  4.04714E+03  7.14286E-02   14   14    4   2     8     11  0.00000E+00
  1    3    3    1  1.07131E+03  7.15464E+03  3.02496E+02  1.00000E+00  5.34198E+04  4.05000E+03  4.04714E+03  2.14286E-01   14   14    4   2     8     11  0.00000E+00
  1    5    4    1  1.66508E+03  6.85268E+03  3.01955E+02  1.00000E+00  3.87955E+04  4.05000E+03  4.04714E+03  3.57143E-01   14   14    4   2     8     11  0.00000E+00
  1    6    5    1  2.08447E+03  6.44065E+03  3.01550E+02  1.00000E+00  2.94503E+04  4.05000E+03  4.04714E+03  5.00000E-01   14   14    4   2     8     11  0.00000E+00
  1    6    6    1  2.34779E+03  5.95904E+03  3.01518E+02  1.00000E+00  2.28144E+04  4.05000E+03  4.04714E+03  6.42857E-01   14   14    4   2     8     11  0.00000E+00
  1    7    7    1  2.49131E+03  5.46673E+03  3.01017E+02  1.00000E+00  1.77853E+04  4.05000E+03  4.04714E+03  7.85714E-01   14   14    4   2     8     11  0.00000E+00
  1    7    8    1  2.48440E+03  4.98425E+03  3.00981E+02  1.00000E+00  1.34021E+04  4.05000E+03  4.04714E+03  9.28571E-01   14   14    4   2     8     11  0.00000E+00
  1    1   22    1  1.28911E+02  2.00482E+03  3.02670E+02  1.00000E+00  6.95854E+04  4.01286E+03  4.01000E+03  7.14286E-02   14   14    4   2     8     11  0.00000E+00
  1    1   22    1  3.60748E+02  2.20425E+03  3.02670E+02  1.00000E+00  4.63470E+04  4.01286E+03  4.01000E+03  2.14286E-01   14   14    4   2     8     11  0.00000E+00
  1    2   22    1  5.98590E+02  2.32977E+03  3.02594E+02  1.00000E+00  3.47101E+04  4.01286E+03  4.01000E+03  3.57143E-01   14   14    4   2     8     11  0.00000E+00
  1    3   21    1  8.39043E+02  2.48110E+03  3.02420E+02  1.00000E+00  2.72540E+04  4.01286E+03  4.01000E+03  5.00000E-01   14   14    4   2     8     11  0.00000E+00
  1    3   21    1  1.08434E+03  2.66624E+03  3.02420E+02  1.00000E+00  2.18403E+04  4.01286E+03  4.01000E+03  6.42857E-01   14   14    4   2     8     11  0.00000E+00
  1    4   20    1  1.35125E+03  2.88079E+03  3.02167E+02  1.00000E+00  1.74545E+04  4.01286E+03  4.01000E+03  7.85714E-01   14   14    4   2     8     11  0.00000E+00
  1    5   19    1  1.65205E+03  3.25974E+03  3.01835E+02  1.00000E+00  1.37550E+04  4.01286E+03  4.01000E+03  9.28571E-01   14   14    4   2     8     11  0.00000E+00
  1    1   23    1  1.63442E+02  1.69473E+03  3.02688E+02  1.00000E+00  6.96394E+04  4.01857E+03  4.01000E+03  7.14286E-02   14   14    4   2     8     11  0.00000E+00
  1    2   23    1  4.33386E+02  1.89730E+03  3.02612E+02  1.00000E+00  4.62301E+04  4.01857E+03  4.01000E+03  2.14286E-01   14   14    4   2     8     11  0.00000E+00
  1    2   22    1  6.94397E+02  2.01855E+03  3.02594E+02  1.00000E+00  3.49032E+04  4.01857E+03  4.01000E+03  3.57143E-01   14   14    4   2     8     11  0.00000E+00
  1    3   22    1  9.50537E+02  2.18809E+03  3.02440E+02  1.00000E+00  2.74846E+04  4.01857E+03  4.01000E+03  5.00000E-01   14   14    4   2     8     11  0.00000E+00
  1    3   21    1  1.18998E+03  2.41105E+03  3.02420E+02  1.00000E+00  2.19902E+04  4.01857E+03  4.01000E+03  6.42857E-01   14   14    4   2     8     11  0.00000E+00
  1    4   21    1  1.45106E+03  2.67627E+03  3.02187E+02  1.00000E+00  1.76067E+04  4.01857E+03  4.01000E+03  7.85714E-01   14   14    4   2     8     11  0.00000E+00
  1    5   20    1  1.71919E+03  3.09065E+03  3.01851E+02  1.00000E+00  1.39953E+04  4.01857E+03  4.01000E+03  9.28571E-01   14   14    4   2     8     11  0.00000E+00
  1    1   24    1  2.02918E+02  1.42721E+03  3.02704E+02  1.00000E+00  7.00153E+04  4.02429E+03  4.01000E+03  7.14286E-02   14   14    4   2     8     11  0.00000E+00
  1    2   23    1  5.13245E+02  1.61965E+03  3.02612E+02  1.00000E+00  4.66664E+04  4.02429E+03  4.01000E+03  2.14286E-01   14   14    4   2     8     11  0.00000E+00
  1    3   23    1  8.09345E+02  1.75458E+03  3.02461E+02  1.00000E+00  3.52567E+04  4.02429E+03  4.01000E+03  3.57143E-01   14   14    4   2     8     11  0.00000E+00
  1    3   23    1  1.07220E+03  1.93571E+03  3.02461E+02  1.00000E+00  2.77770E+04  4.02429E+03  4.01000E+03  5.00000E-01   14   14    4   2     8     11  0.00000E+00
  1    4   22    1  1.32468E+03  2.17245E+03  3.02210E+02  1.00000E+00  2.23321E+04  4.02429E+03  4.01000E+03  6.42857E-01   14   14    4   2     8     11  0.00000E+00
  1    4   21    1  1.57290E+03  2.47128E+03  3.02187E+02  1.00000E+00  1.78074E+04  4.02429E+03  4.01000E+03  7.85714E-01   14   14    4   2     8     11  0.00000E+00
  1    5   20    1  1.83179E+03  2.92758E+03  3.01851E+02  1.00000E+00  1.39767E+04  4.02429E+03  4.01000E+03  9.28571E-01   14   14    4   2     8     11  0.00000E+00
  1    1   24    1  2.40993E+02  1.22578E+03  3.02704E+02  1.00000E+00  7.05580E+04  4.03000E+03  4.01000E+03  7.14286E-02   14   14    4   2     8     11  0.00000E+00
  1    2   24    1  6.15968E+02  1.39624E+03  3.02629E+02  1.00000E+00  4.68871E+04  4.03000E+03  4.01000E+03  2.14286E-01   14   14    4   2     8     11  0.00000E+00
  1    3   24    1  9.39853E+02  1.53279E+03  3.02480E+02  1.00000E+00  3.55781E+04  4.03000E+03  4.01000E+03  3.57143E-01   14   14    4   2     8     11  0.00000E+00
  1    4   23    1  1.22787E+03  1.72957E+03  3.02233E+02  1.00000E+00  2.81292E+04  4.03000E+03  4.01000E+03  5.00000E-01   14   14    4   2     8     11  0.00000E+00
  1    4   23    1  1.48057E+03  1.99130E+03  3.02233E+02  1.00000E+00  2.25059E+04  4.03000E+03  4.01000E+03  6.42857E-01   14   14    4   2     8     11  0.00000E+00
  1    5   22    1  1.71105E+03  2.32768E+03  3.01903E+02  1.00000E+00  1.79530E+04  4.03000E+03  4.01000E+03  7.85714E-01   14   14    4   2     8     11  0.00000E+00
  1    5   20    1  1.93869E+03  2.83888E+03  3.01851E+02  1.00000E+00  1.39300E+04  4.03000E+03  4.01000E+03  9.28571E-01   14   14    4   2     8     11  0.00000E+00
  1    1   25    1  2.68938E+02  1.05059E+03  3.02718E+02  1.00000E+00  7.28304E+04  4.03571E+03  4.01000E+03  7.14286E-02   14   14    4   2     8     11  0.00000E+00
  1    2   24    1  6.89593E+02  1.20721E+03  3.02629E+02  1.00000E+00  4.85367E+04  4.03571E+03  4.01000E+03  2.14286E-01   14   14    4   2     8     11  0.00000E+00
  1    3   24    1  1.09113E+03  1.36320E+03  3.02480E+02  1.00000E+00  3.62161E+04  4.03571E+03  4.01000E+03  3.57143E-01   14   14    4   2     8     11  0.00000E+00
  1    4   24    1  1.41203E+03  1.59382E+03  3.02255E+02  1.00000E+00  2.82493E+04  4.03571E+03  4.01000E+03  5.00000E-01   14   14    4   2     8     11  0.00000E+00
  1    5   23    1  1.67227E+03  1.89638E+03  3.01930E+02  1.00000E+00  2.25250E+04  4.03571E+03  4.01000E+03  6.42857E-01   14   14    4   2     8     11  0.00000E+00
  1    5   22    1  1.89067E+03  2.27479E+03  3.01903E+02  1.00000E+00  1.78499E+04  4.03571E+03  4.01000E+03  7.85714E-01   14   14    4   2     8     11  0.00000E+00
  1    6   20    1  2.06050E+03  2.81119E+03  3.01456E+02  1.00000E+00  1.37707E+04  4.03571E+03  4.01000E+03  9.28571E-01   14   14    4   2     8     11  0.00000E+00
  1    1   25    1  2.93347E+02  8.80307E+02  3.02718E+02  1.00000E+00  7.64231E+04  4.04143E+03  4.01000E+03  7.14286E-02   14   14    4   2     8     11  0.00000E+00
  1    2   25    1  7.93451E+02  1.06676E+03  3.02644E+02  1.00000E+00  5.00436E+04  4.04143E+03  4.01000E+03  2.14286E-01   14   14    4   2     8     11  0.00000E+00
  1    4   24    1  1.25265E+03  1.25136E+03  3.02255E+02  1.00000E+00  3.69486E+04  4.04143E+03  4.01000E+03  3.57143E-01   14   14    4   2     8     11  0.00000E+00
  1    5   24    1  1.61645E+03  1.52645E+03  3.01955E+02  1.00000E+00  2.84360E+04  4.04143E+03  4.01000E+03  5.00000E-01   14   14    4   2     8     11  0.00000E+00
  1    5   23    1  1.88818E+03  1.87917E+03  3.01930E+02  1.00000E+00  2.24480E+04  4.04143E+03  4.01000E+03  6.42857E-01   14   14    4   2     8     11  0.00000E+00
  1    6   22    1  2.10173E+03  2.31047E+03  3.01518E+02  1.00000E+00  1.73586E+04  4.04143E+03  4.01000E+03  7.85714E-01   14   14    4   2     8     11  0.00000E+00
  1    6   20    1  2.21160E+03  2.85375E+03  3.01456E+02  1.00000E+00  1.35597E+04  4.04143E+03  4.01000E+03  9.28571E-01   14   14    4   2     8     11  0.00000E+00
  1    1   26    1  3.39505E+02  7.62348E+02  3.02727E+02  1.00000E+00  7.84634E+04  4.04714E+03  4.01000E+03  7.14286E-02   14   14    4   2     8     11  0.00000E+00
  1    3   25    1  9.09218E+02  9.60553E+02  3.02495E+02  1.00000E+00  5.17210E+04  4.04714E+03  4.01000E+03  2.14286E-01   14   14    4   2     8     11  0.00000E+00
  1    4   25    1  1.43626E+03  1.19078E+03  3.02273E+02  1.00000E+00  3.78278E+04  4.04714E+03  4.01000E+03  3.57143E-01   14   14    4   2     8     11  0.00000E+00
  1    5   24    1  1.83851E+03  1.52541E+03  3.01955E+02  1.00000E+00  2.87416E+04  4.04714E+03  4.01000E+03  5.00000E-01   14   14    4   2     8     11  0.00000E+00
  1    6   23    1  2.11697E+03  1.93368E+03  3.01550E+02  1.00000E+00  2.23464E+04  4.04714E+03  4.01000E+03  6.42857E-01   14   14    4   2     8     11  0.00000E+00
  1    6   22    1  2.29318E+03  2.39036E+03  3.01518E+02  1.00000E+00  1.73321E+04  4.04714E+03  4.01000E+03  7.85714E-01   14   14    4   2     8     11  0.00000E+00
  1    6   20    1  2.35050E+03  2.93622E+03  3.01456E+02  1.00000E+00  1.35117E+04  4.04714E+03  4.01000E+03  9.28571E-01   14   14    4   2     8     11  0.00000E+00
  1    1    6    1  1.28961E+02  6.05558E+03  3.02671E+02  1.00000E+00  6.95805E+04  4.01286E+03  4.05000E+03  7.14286E-02   14   14    4   2     8     11  0.00000E+00
  1    1    6    1  3.60834E+02  5.85607E+03  3.02671E+02  1.00000E+00  4.63442E+04  4.01286E+03  4.05000E+03  2.14286E-01   14   14    4   2     8     11  0.00000E+00
  1    2    6    1  5.98669E+02  5.73052E+03  3.02594E+02  1.00000E+00  3.47086E+04  4.01286E+03  4.05000E+03  3.57143E-01   14   14    4   2     8     11  0.00000E+00
  1    3    7    1  8.39102E+02  5.57917E+03  3.02421E+02  1.00000E+00  2.72530E+04  4.01286E+03  4.05000E+03  5.00000E-01   14   14    4   2     8     11  0.00000E+00
  1    3    7    1  1.08439E+03  5.39402E+03  3.02421E+02  1.00000E+00  2.18397E+04  4.01286E+03  4.05000E+03  6.42857E-01   14   14    4   2     8     11  0.00000E+00
  1    4    8    1  1.35128E+03  5.17947E+03  3.02167E+02  1.00000E+00  1.74541E+04  4.01286E+03  4.05000E+03  7.85714E-01   14   14    4   2     8     11  0.00000E+00
  1    5    9    1  1.65207E+03  4.80055E+03  3.01835E+02  1.00000E+00  1.37548E+04  4.01286E+03  4.05000E+03  9.28571E-01   14   14    4   2     8     11  0.00000E+00
  1    1    5    1  1.63498E+02  6.36553E+03  3.02688E+02  1.00000E+00  6.96341E+04  4.01857E+03  4.05000E+03  7.14286E-02   14   14    4   2     8     11  0.00000E+00
  1    2    5    1  4.33466E+02  6.16291E+03  3.02612E+02  1.00000E+00  4.62271E+04  4.01857E+03  4.05000E+03  2.14286E-01   14   14    4   2     8     11  0.00000E+00
  1    2    6    1  6.94461E+02  6.04163E+03  3.02594E+02  1.00000E+00  3.49015E+04  4.01857E+03  4.05000E+03  3.57143E-01   14   14    4   2     8     11  0.00000E+00
  1    3    6    1  9.50583E+02  5.87208E+03  3.02441E+02  1.00000E+00  2.74836E+04  4.01857E+03  4.05000E+03  5.00000E-01   14   14    4   2     8     11  0.00000E+00
  1    3    7    1  1.19001E+03  5.64914E+03  3.02421E+02  1.00000E+00  2.19896E+04  4.01857E+03  4.05000E+03  6.42857E-01   14   14    4   2     8     11  0.00000E+00
  1    4    7    1  1.45108E+03  5.38394E+03  3.02187E+02  1.00000E+00  1.76064E+04  4.01857E+03  4.05000E+03  7.85714E-01   14   14    4   2     8     11  0.00000E+00
  1    5    8    1  1.71920E+03  4.96960E+03  3.01851E+02  1.00000E+00  1.39951E+04  4.01857E+03  4.05000E+03  9.28571E-01   14   14    4   2     8     11  0.00000E+00
  1    1    4    1  2.02973E+02  6.63293E+03  3.02704E+02  1.00000E+00  7.00094E+04  4.02429E+03  4.05000E+03  7.14286E-02   14   14    4   2     8     11  0.00000E+00
  1    2    5    1  5.13314E+02  6.44045E+03  3.02612E+02  1.00000E+00  4.66633E+04  4.02429E+03  4.05000E+03  2.14286E-01   14   14    4   2     8     11  0.00000E+00
  1    3    5    1  8.09389E+02  6.30551E+03  3.02461E+02  1.00000E+00  3.52548E+04  4.02429E+03  4.05000E+03  3.57143E-01   14   14    4   2     8     11  0.00000E+00
  1    3    5    1  1.07223E+03  6.12437E+03  3.02461E+02  1.00000E+00  2.77758E+04  4.02429E+03  4.05000E+03  5.00000E-01   14   14    4   2     8     11  0.00000E+00
  1    4    6    1  1.32470E+03  5.88767E+03  3.02210E+02  1.00000E+00  2.23314E+04  4.02429E+03  4.05000E+03  6.42857E-01   14   14    4   2     8     11  0.00000E+00
  1    4    7    1  1.57291E+03  5.58887E+03  3.02187E+02  1.00000E+00  1.78070E+04  4.02429E+03  4.05000E+03  7.85714E-01   14   14    4   2     8     11  0.00000E+00
  1    5    8    1  1.83179E+03  5.13262E+03  3.01851E+02  1.00000E+00  1.39765E+04  4.02429E+03  4.05000E+03  9.28571E-01   14   14    4   2     8     11  0.00000E+00
  1    1    4    1  2.41049E+02  6.83426E+03  3.02704E+02  1.00000E+00  7.05518E+04  4.03000E+03  4.05000E+03  7.14286E-02   14   14    4   2     8     11  0.00000E+00
  1    2    4    1  6.16017E+02  6.66378E+03  3.02630E+02  1.00000E+00  4.68837E+04  4.03000E+03  4.05000E+03  2.14286E-01   14   14    4   2     8     11  0.00000E+00
  1    3    4    1  9.39873E+02  6.52723E+03  3.02480E+02  1.00000E+00  3.55761E+04  4.03000E+03  4.05000E+03  3.57143E-01   14   14    4   2     8     11  0.00000E+00
  1    4    5    1  1.22788E+03  6.33045E+03  3.02234E+02  1.00000E+00  2.81279E+04  4.03000E+03  4.05000E+03  5.00000E-01   14   14    4   2     8     11  0.00000E+00
  1    4    5    1  1.48058E+03  6.06875E+03  3.02234E+02  1.00000E+00  2.25052E+04  4.03000E+03  4.05000E+03  6.42857E-01   14   14    4   2     8     11  0.00000E+00
  1    5    6    1  1.71104E+03  5.73244E+03  3.01903E+02  1.00000E+00  1.79527E+04  4.03000E+03  4.05000E+03  7.85714E-01   14   14    4   2     8     11  0.00000E+00
  1    5    8    1  1.93869E+03  5.22130E+03  3.01851E+02  1.00000E+00  1.39299E+04  4.03000E+03  4.05000E+03  9.28571E-01   14   14    4   2     8     11  0.00000E+00
  1    1    3    1  2.68982E+02  7.00939E+03  3.02718E+02  1.00000E+00  7.28237E+04  4.03571E+03  4.05000E+03  7.14286E-02   14   14    4   2     8     11  0.00000E+00
  1    2    4    1  6.89642E+02  6.85274E+03  3.02630E+02  1.00000E+00  4.85329E+04  4.03571E+03  4.05000E+03  2.14286E-01   14   14    4   2     8     11  0.00000E+00