@ [ MODPATH Version 4.00 (V4, Release 2, 4-2001) (TREF=   0.000000E+00 ) ]
  1   27   11    1  8.05892E+03  4.26428E+03  2.83272E+02  1.00000E+00  2.82925E+05  1.00000E+02  7.76000E+03  9.99900E-01    1    1    1   1     1     11  0.00000E+00
  1   27    5    1  8.05967E+03  6.24580E+03  2.83296E+02  1.00000E+00  2.50703E+05  1.00000E+02  7.96000E+03  9.99900E-01    1    1    1   1     1     11  0.00000E+00
  1   27    8    1  8.05757E+03  5.04923E+03  2.83278E+02  1.00000E+00  1.96779E+05  3.00000E+02  7.76000E+03  9.99900E-01    1    1    1   1     1     11  0.00000E+00
  1   27    3    1  8.05863E+03  6.92138E+03  2.83307E+02  1.00000E+00  1.86314E+05  3.00000E+02  7.96000E+03  9.99900E-01    1    1    1   1     1     11  0.00000E+00
  1   27    7    1  8.05619E+03  5.52571E+03  2.83284E+02  1.00000E+00  1.63109E+05  5.00000E+02  7.76000E+03  9.99900E-01    2    1    1   1     1     11  0.00000E+00
  1   27    3    1  8.05719E+03  7.17065E+03  2.83307E+02  1.00000E+00  1.56389E+05  5.00000E+02  7.96000E+03  9.99900E-01    2    1    1   1     1     11  0.00000E+00
  1   27    6    1  8.05454E+03  5.88177E+03  2.83290E+02  1.00000E+00  1.41160E+05  7.00000E+02  7.76000E+03  9.99900E-01    2    1    1   1     1     11  0.00000E+00
  1   27    2    1  8.05540E+03  7.32128E+03  2.83310E+02  1.00000E+00  1.36266E+05  7.00000E+02  7.96000E+03  9.99900E-01    2    1    1   1     1     11  0.00000E+00
  1   27    5    1  8.05262E+03  6.17299E+03  2.83296E+02  1.00000E+00  1.24589E+05  9.00000E+02  7.76000E+03  9.99900E-01    3    1    1   1     1     11  0.00000E+00
  1   27    2    1  8.05324E+03  7.43066E+03  2.83310E+02  1.00000E+00  1.20840E+05  9.00000E+02  7.96000E+03  9.99900E-01    3    1    1   1     1     11  0.00000E+00
  1   27    5    1  8.05041E+03  6.43166E+03  2.83296E+02  1.00000E+00  1.10682E+05  1.10000E+03  7.76000E+03  9.99900E-01    3    1    1   1     1     11  0.00000E+00
  1   27    2    1  8.05073E+03  7.52179E+03  2.83310E+02  1.00000E+00  1.07758E+05  1.10000E+03  7.96000E+03  9.99900E-01    3    1    1   1     1     11  0.00000E+00
  1   27    4    1  8.04758E+03  6.66011E+03  2.83302E+02  1.00000E+00  9.86091E+04  1.30000E+03  7.76000E+03  9.99900E-01    4    1    1   1     1     11  0.00000E+00
  1   27    2    1  8.04783E+03  7.59724E+03  2.83310E+02  1.00000E+00  9.64943E+04  1.30000E+03  7.96000E+03  9.99900E-01    4    1    1   1     1     11  0.00000E+00
  1   27    4    1  8.04450E+03  6.84068E+03  2.83302E+02  1.00000E+00  8.88049E+04  1.50000E+03  7.76000E+03  9.99900E-01    4    1    1   1     1     11  0.00000E+00
  1   27    2    1  8.04455E+03  7.65741E+03  2.83310E+02  1.00000E+00  8.71296E+04  1.50000E+03  7.96000E+03  9.99900E-01    4    1    1   1     1     11  0.00000E+00
  1   27    3    1  8.04062E+03  7.01324E+03  2.83307E+02  1.00000E+00  7.93333E+04  1.70000E+03  7.76000E+03  9.99900E-01    5    1    1   1     1     11  0.00000E+00
  1   27    1    1  8.04064E+03  7.71431E+03  2.83312E+02  1.00000E+00  7.80396E+04  1.70000E+03  7.96000E+03  9.99900E-01    5    1    1   1     1     11  0.00000E+00
  1   27    3    1  8.03617E+03  7.18385E+03  2.83307E+02  1.00000E+00  6.94294E+04  1.90000E+03  7.76000E+03  9.99900E-01    5    1    1   1     1     11  0.00000E+00
  1   27    1    1  8.03605E+03  7.76978E+03  2.83312E+02  1.00000E+00  6.86497E+04  1.90000E+03  7.96000E+03  9.99900E-01    5    1    1   1     1     11  0.00000E+00
  1   27    2    1  8.03090E+03  7.30951E+03  2.83310E+02  1.00000E+00  6.20967E+04  2.10000E+03  7.76000E+03  9.99900E-01    6    1    1   1     1     11  0.00000E+00
  1   27    1    1  8.03063E+03  7.81129E+03  2.83312E+02  1.00000E+00  6.14427E+04  2.10000E+03  7.96000E+03  9.99900E-01    6    1    1   1     1     11  0.00000E+00
  1   27    2    1  8.02448E+03  7.42999E+03  2.83310E+02  1.00000E+00  5.34165E+04  2.30000E+03  7.76000E+03  9.99900E-01    6    1    1   1     1     11  0.00000E+00
  1   27    1    1  8.02425E+03  7.85104E+03  2.83312E+02  1.00000E+00  5.28882E+04  2.30000E+03  7.96000E+03  9.99900E-01    6    1    1   1     1     11  0.00000E+00
  1   27    2    1  8.01668E+03  7.54086E+03  2.83310E+02  1.00000E+00  4.54426E+04  2.50000E+03  7.76000E+03  9.99900E-01    7    1    1   1     1     11  0.00000E+00
  1   27    1    1  8.01653E+03  7.88735E+03  2.83312E+02  1.00000E+00  4.51522E+04  2.50000E+03  7.96000E+03  9.99900E-01    7    1    1   1     1     11  0.00000E+00
  1   27    2    1  8.00730E+03  7.63525E+03  2.83310E+02  1.00000E+00  3.67130E+04  2.70000E+03  7.76000E+03  9.99900E-01    7    1    1   1     1     11  0.00000E+00
  1   27    1    1  8.00722E+03  7.91849E+03  2.83312E+02  1.00000E+00  3.66457E+04  2.70000E+03  7.96000E+03  9.99900E-01    7    1    1   1     1     11  0.00000E+00
  1   27    1    1  7.99513E+03  7.72530E+03  2.83312E+02  1.00000E+00  1.10691E+04  2.90000E+03  7.76000E+03  9.99900E-01    8    1    1   1     1     11  0.00000E+00
  1   27    1    1  7.99513E+03  7.94843E+03  2.83312E+02  1.00000E+00  1.10691E+04  2.90000E+03  7.96000E+03  9.99900E-01    8    1    1   1     1     11  0.00000E+00
  1   27    1    1  7.98200E+03  7.72843E+03  2.83312E+02  1.00000E+00  1.01621E+04  3.10000E+03  7.76000E+03  9.99900E-01    8    1    1   1     1     11  0.00000E+00
  1   27    1    1  7.98200E+03  7.94948E+03  2.83312E+02  1.00000E+00  1.01621E+04  3.10000E+03  7.96000E+03  9.99900E-01    8    1    1   1     1     11  0.00000E+00
  1   27    1    1  7.97042E+03  7.73103E+03  2.83312E+02  1.00000E+00  9.42340E+03  3.27500E+03  7.76000E+03  9.99900E-01    9    1    1   1     1     11  0.00000E+00
  1   27    1    1  7.97042E+03  7.95034E+03  2.83312E+02  1.00000E+00  9.42340E+03  3.27500E+03  7.96000E+03  9.99900E-01    9    1    1   1     1     11  0.00000E+00
  1   27    1    1  7.96042E+03  7.73319E+03  2.83312E+02  1.00000E+00  8.82745E+03  3.42500E+03  7.76000E+03  9.99900E-01    9    1    1   1     1     11  0.00000E+00
  1   27    1    1  7.96042E+03  7.95106E+03  2.83312E+02  1.00000E+00  8.82745E+03  3.42500E+03  7.96000E+03  9.99900E-01    9    1    1   1     1     11  0.00000E+00
  1   27    1    1  7.95203E+03  7.73492E+03  2.83312E+02  1.00000E+00  8.35403E+03  3.55000E+03  7.76000E+03  9.99900E-01   10    1    1   1     1     11  0.00000E+00
  1   27    1    1  7.95203E+03  7.95164E+03  2.83312E+02  1.00000E+00  8.35403E+03  3.55000E+03  7.96000E+03  9.99900E-01   10    1    1   1     1     11  0.00000E+00
  1   27    1    1  7.94529E+03  7.73628E+03  2.83312E+02  1.00000E+00  7.99003E+03  3.65000E+03  7.76000E+03  9.99900E-01   10    1    1   1     1     11  0.00000E+00
  1   27    1    1  7.94529E+03  7.95209E+03  2.83312E+02  1.00000E+00  7.99003E+03  3.65000E+03  7.96000E+03  9.99900E-01   10    1    1   1     1     11  0.00000E+00
  1   27    1    1  7.93937E+03  7.73743E+03  2.83312E+02  1.00000E+00  7.68136E+03  3.73750E+03  7.76000E+03  9.99900E-01   11    1    1   1     1     11  0.00000E+00
  1   27    1    1  7.93937E+03  7.95248E+03  2.83312E+02  1.00000E+00  7.68136E+03  3.73750E+03  7.96000E+03  9.99900E-01   11    1    1   1     1     11  0.00000E+00
  1   27    1    1  7.93428E+03  7.73839E+03  2.83312E+02  1.00000E+00  7.42400E+03  3.81250E+03  7.76000E+03  9.99900E-01   11    1    1   1     1     11  0.00000E+00
  1   27    1    1  7.93428E+03  7.95280E+03  2.83312E+02  1.00000E+00  7.42400E+03  3.81250E+03  7.96000E+03  9.99900E-01   11    1    1   1     1     11  0.00000E+00
  1   27    1    1  7.93003E+03  7.73918E+03  2.83312E+02  1.00000E+00  7.21427E+03  3.87500E+03  7.76000E+03  9.99900E-01   12    1    1   1     1     11  0.00000E+00
  1   27    1    1  7.93003E+03  7.95306E+03  2.83312E+02  1.00000E+00  7.21427E+03  3.87500E+03  7.96000E+03  9.99900E-01   12    1    1   1     1     11  0.00000E+00
  1   27    1    1  7.92662E+03  7.73980E+03  2.83312E+02  1.00000E+00  7.04963E+03  3.92500E+03  7.76000E+03  9.99900E-01   12    1    1   1     1     11  0.00000E+00
  1   27    1    1  7.92662E+03  7.95327E+03  2.83312E+02  1.00000E+00  7.04963E+03  3.92500E+03  7.96000E+03  9.99900E-01   12    1    1   1     1     11  0.00000E+00
  1   27    1    1  7.92389E+03  7.74029E+03  2.83312E+02  1.00000E+00  6.91979E+03  3.96500E+03  7.76000E+03  9.99900E-01   13    1    1   1     1     11  0.00000E+00
  1   27    1    1  7.92389E+03  7.95343E+03  2.83312E+02  1.00000E+00  6.91979E+03  3.96500E+03  7.96000E+03  9.99900E-01   13    1    1   1     1     11  0.00000E+00
  1   27    1    1  7.92183E+03  7.74065E+03  2.83312E+02  1.00000E+00  6.82355E+03  3.99500E+03  7.76000E+03  9.99900E-01   13    1    1   1     1     11  0.00000E+00
  1   27    1    1  7.92183E+03  7.95355E+03  2.83312E+02  1.00000E+00  6.82355E+03  3.99500E+03  7.96000E+03  9.99900E-01   13    1    1   1     1     11  0.00000E+00
  1   27    1    1  7.92012E+03  7.74095E+03  2.83312E+02  1.00000E+00  6.74405E+03  4.02000E+03  7.76000E+03  9.99900E-01   14    1    1   1     1     11  0.00000E+00
  1   27    1    1  7.92012E+03  7.95365E+03  2.83312E+02  1.00000E+00  6.74405E+03  4.02000E+03  7.96000E+03  9.99900E-01   14    1    1   1     1     11  0.00000E+00
  1   27    1    1  7.91875E+03  7.74118E+03  2.83312E+02  1.00000E+00  6.68092E+03  4.04000E+03  7.76000E+03  9.99900E-01   14    1    1   1     1     11  0.00000E+00
  1   27    1    1  7.91875E+03  7.95373E+03  2.83312E+02  1.00000E+00  6.68092E+03  4.04000E+03  7.96000E+03  9.99900E-01   14    1    1   1     1     11  0.00000E+00
  1   27    1    1  7.91703E+03  7.74148E+03  2.83312E+02  1.00000E+00  6.60260E+03  4.06500E+03  7.76000E+03  9.99900E-01   15    1    1   1     1     11  0.00000E+00
  1   27    1    1  7.91703E+03  7.95383E+03  2.83312E+02  1.00000E+00  6.60260E+03  4.06500E+03  7.96000E+03  9.99900E-01   15    1    1   1     1     11  0.00000E+00
  1   27    1    1  7.91497E+03  7.74183E+03  2.83312E+02  1.00000E+00  6.50942E+03  4.09500E+03  7.76000E+03  9.99900E-01   15    1    1   1     1     11  0.00000E+00
  1   27    1    1  7.91497E+03  7.95394E+03  2.83312E+02  1.00000E+00  6.50942E+03  4.09500E+03  7.96000E+03  9.99900E-01   15    1    1   1     1     11  0.00000E+00
  1   27    1    1  7.91222E+03  7.74229E+03  2.83312E+02  1.00000E+00  6.38663E+03  4.13500E+03  7.76000E+03  9.99900E-01   16    1    1   1     1     11  0.00000E+00
  1   27    1    1  7.91222E+03  7.95410E+03  2.83312E+02  1.00000E+00  6.38663E+03  4.13500E+03  7.96000E+03  9.99900E-01   16    1    1   1     1     11  0.00000E+00
  1   27    1    1  7.90878E+03  7.74285E+03  2.83312E+02  1.00000E+00  6.23528E+03  4.18500E+03  7.76000E+03  9.99900E-01   16    1    1   1     1     11  0.00000E+00
  1   27    1    1  7.90878E+03  7.95428E+03  2.83312E+02  1.00000E+00  6.23528E+03  4.18500E+03  7.96000E+03  9.99900E-01   16    1    1   1     1     11  0.00000E+00
  1   27    1    1  7.90447E+03  7.74354E+03  2.83312E+02  1.00000E+00  6.04955E+03  4.24750E+03  7.76000E+03  9.99900E-01   17    1    1   1     1     11  0.00000E+00
  1   27    1    1  7.90447E+03  7.95452E+03  2.83312E+02  1.00000E+00  6.04955E+03  4.24750E+03  7.96000E+03  9.99900E-01   17    1    1   1     1     11  0.00000E+00
  1   27    1    1  7.89928E+03  7.74435E+03  2.83312E+02  1.00000E+00  5.83142E+03  4.32250E+03  7.76000E+03  9.99900E-01   17    1    1   1     1     11  0.00000E+00
  1   27    1    1  7.89928E+03  7.95478E+03  2.83312E+02  1.00000E+00  5.83142E+03  4.32250E+03  7.96000E+03  9.99900E-01   17    1    1   1     1     11  0.00000E+00
  1   27    1    1  7.89321E+03  7.74527E+03  2.83312E+02  1.00000E+00  5.58353E+03  4.41000E+03  7.76000E+03  9.99900E-01   18    1    1   1     1     11  0.00000E+00
  1   27    1    1  7.89321E+03  7.95509E+03  2.83312E+02  1.00000E+00  5.58353E+03  4.41000E+03  7.96000E+03  9.99900E-01   18    1    1   1     1     11  0.00000E+00
  1   27    1    1  7.88625E+03  7.74627E+03  2.83312E+02  1.00000E+00  5.30839E+03  4.51000E+03  7.76000E+03  9.99900E-01   18    1    1   1     1     11  0.00000E+00
  1   27    1    1  7.88625E+03  7.95542E+03  2.83312E+02  1.00000E+00  5.30839E+03  4.51000E+03  7.96000E+03  9.99900E-01   18    1    1   1     1     11  0.00000E+00
  1   27    1    1  7.87752E+03  7.74746E+03  2.83312E+02  1.00000E+00  4.97681E+03  4.63500E+03  7.76000E+03  9.99900E-01   19    1    1   1     1     11  0.00000E+00
  1   27    1    1  7.87752E+03  7.95582E+03  2.83312E+02  1.00000E+00  4.97681E+03  4.63500E+03  7.96000E+03  9.99900E-01   19    1    1   1     1     11  0.00000E+00
  1   27    1    1  7.86701E+03  7.74881E+03  2.83312E+02  1.00000E+00  4.59548E+03  4.78500E+03  7.76000E+03  9.99900E-01   19    1    1   1     1     11  0.00000E+00
  1   27    1    1  7.86701E+03  7.95627E+03  2.83312E+02  1.00000E+00  4.59548E+03  4.78500E+03  7.96000E+03  9.99900E-01   19    1    1   1     1     11  0.00000E+00
  1   27    1    1  7.85469E+03  7.75024E+03  2.83312E+02  1.00000E+00  4.17321E+03  4.96000E+03  7.76000E+03  9.99900E-01   20    1    1   1     1     11  0.00000E+00
  1   27    1    1  7.85469E+03  7.95675E+03  2.83312E+02  1.00000E+00  4.17321E+03  4.96000E+03  7.96000E+03  9.99900E-01   20    1    1   1     1     11  0.00000E+00
  1   27    1    1  7.84054E+03  7.75175E+03  2.83312E+02  1.00000E+00  3.71815E+03  5.16000E+03  7.76000E+03  9.99900E-01   20    1    1   1     1     11  0.00000E+00
  1   27    1    1  7.84054E+03  7.95725E+03  2.83312E+02  1.00000E+00  3.71815E+03  5.16000E+03  7.96000E+03  9.99900E-01   20    1    1   1     1     11  0.00000E+00
  1   27    1    1  7.82632E+03  7.75309E+03  2.83312E+02  1.00000E+00  3.29085E+03  5.36000E+03  7.76000E+03  9.99900E-01   21    1    1   1     1     11  0.00000E+00
  1   27    1    1  7.82632E+03  7.95770E+03  2.83312E+02  1.00000E+00  3.29085E+03  5.36000E+03  7.96000E+03  9.99900E-01   21    1    1   1     1     11  0.00000E+00
  1   27    1    1  7.81204E+03  7.75427E+03  2.83312E+02  1.00000E+00  2.89043E+03  5.56000E+03  7.76000E+03  9.99900E-01   21    1    1   1     1     11  0.00000E+00
  1   27    1    1  7.81204E+03  7.95809E+03  2.83312E+02  1.00000E+00  2.89043E+03  5.56000E+03  7.96000E+03  9.99900E-01   21    1    1   1     1     11  0.00000E+00
  1   27    1    1  7.79772E+03  7.75532E+03  2.83312E+02  1.00000E+00  2.51499E+03  5.76000E+03  7.76000E+03  9.99900E-01   22    1    1   1     1     11  0.00000E+00
  1   27    1    1  7.79772E+03  7.95844E+03  2.83312E+02  1.00000E+00  2.51499E+03  5.76000E+03  7.96000E+03  9.99900E-01   22    1    1   1     1     11  0.00000E+00
  1   27    1    1  7.78334E+03  7.75623E+03  2.83312E+02  1.00000E+00  2.16384E+03  5.96000E+03  7.76000E+03  9.99900E-01   22    1    1   1     1     11  0.00000E+00
  1   27    1    1  7.78334E+03  7.95874E+03  2.83312E+02  1.00000E+00  2.16384E+03  5.96000E+03  7.96000E+03  9.99900E-01   22    1    1   1     1     11  0.00000E+00
  1   27    1    1  7.76893E+03  7.75701E+03  2.83312E+02  1.00000E+00  1.83530E+03  6.16000E+03  7.76000E+03  9.99900E-01   23    1    1   1     1     11  0.00000E+00
  1   27    1    1  7.76893E+03  7.95900E+03  2.83312E+02  1.00000E+00  1.83530E+03  6.16000E+03  7.96000E+03  9.99900E-01   23    1    1   1     1     11  0.00000E+00
  1   27    1    1  7.75448E+03  7.75768E+03  2.83312E+02  1.00000E+00  1.52879E+03  6.36000E+03  7.76000E+03  9.99900E-01   23    1    1   1     1     11  0.00000E+00
  1   27    1    1  7.75448E+03  7.95923E+03  2.83312E+02  1.00000E+00  1.52879E+03  6.36000E+03  7.96000E+03  9.99900E-01   23    1    1   1     1     11  0.00000E+00
  1   27    1    1  7.74001E+03  7.75826E+03  2.83312E+02  1.00000E+00  1.24282E+03  6.56000E+03  7.76000E+03  9.99900E-01   24    1    1   1     1     11  0.00000E+00
  1   27    1    1  7.74001E+03  7.95942E+03  2.83312E+02  1.00000E+00  1.24282E+03  6.56000E+03  7.96000E+03  9.99900E-01   24    1    1   1     1     11  0.00000E+00
  1   27    1    1  7.72551E+03  7.75873E+03  2.83312E+02  1.00000E+00  9.76887E+02  6.76000E+03  7.76000E+03  9.99900E-01   24    1    1   1     1     11  0.00000E+00
  1   27    1    1  7.72551E+03  7.95958E+03  2.83312E+02  1.00000E+00  9.76887E+02  6.76000E+03  7.96000E+03  9.99900E-01   24    1    1   1     1     11  0.00000E+00
  1   27    1    1  7.71098E+03  7.75913E+03  2.83312E+02  1.00000E+00  7.29643E+02  6.96000E+03  7.76000E+03  9.99900E-01   25    1    1   1     1     11  0.00000E+00
  1   27    1    1  7.71098E+03  7.95971E+03  2.83312E+02  1.00000E+00  7.29643E+02  6.96000E+03  7.96000E+03  9.99900E-01   25    1    1   1     1     11  0.00000E+00
  1   27    1    1  7.69644E+03  7.75945E+03  2.83312E+02  1.00000E+00  5.00630E+02  7.16000E+03  7.76000E+03  9.99900E-01   25    1    1   1     1     11  0.00000E+00
  1   27    1    1  7.69644E+03  7.95982E+03  2.83312E+02  1.00000E+00  5.00630E+02  7.16000E+03  7.96000E+03  9.99900E-01   25    1    1   1     1     11  0.00000E+00
  1   27    1    1  7.68189E+03  7.75971E+03  2.83312E+02  1.00000E+00  2.88649E+02  7.36000E+03  7.76000E+03  9.99900E-01   26    1    1   1     1     11  0.00000E+00
  1   27    1    1  7.68189E+03  7.95990E+03  2.83312E+02  1.00000E+00  2.88649E+02  7.36000E+03  7.96000E+03  9.99900E-01   26    1    1   1     1     11  0.00000E+00
  1   27    1    1  7.66732E+03  7.75991E+03  2.83312E+02  1.00000E+00  9.32646E+01  7.56000E+03  7.76000E+03  9.99900E-01   26    1    1   1     1     11  0.00000E+00
  1   27    1    1  7.66732E+03  7.95997E+03  2.83312E+02  1.00000E+00  9.32646E+01  7.56000E+03  7.96000E+03  9.99900E-01   26    1    1   1     1     11  0.00000E+00
  1   27    1    1  7.76003E+03  7.76000E+03  2.83312E+02  1.00000E+00  3.06869E-02  7.76000E+03  7.76000E+03  9.99900E-01   27    1    1   1     1     11  0.00000E+00
  1   27    1    1  7.76003E+03  7.96000E+03  2.83312E+02  1.00000E+00  3.06869E-02  7.76000E+03  7.96000E+03  9.99900E-01   27    1    1   1     1     11  0.00000E+00
  1   27    1    1  7.96001E+03  7.76000E+03  2.83312E+02  1.00000E+00  3.06869E-02  7.96000E+03  7.76000E+03  9.99900E-01   27    1    1   1     1     11  0.00000E+00
  1   27    1    1  7.96001E+03  7.96000E+03  2.83312E+02  1.00000E+00  3.06869E-02  7.96000E+03  7.96000E+03  9.99900E-01   27    1    1   1     1     11  0.00000E+00
  2   14   14    4  4.04851E+03  4.05000E+03  5.10994E+01  2.19886E-02  1.07377E+05  1.00000E+02  7.36000E+03  9.99900E-01    1    2    1   1     1     11  0.00000E+00
  2   14   14    4  4.05000E+03  4.04525E+03  5.04910E+01  9.81964E-03  1.20098E+05  1.00000E+02  7.56000E+03  9.99900E-01    1    2    1   1     1     11  0.00000E+00
  2   14   14    4  4.05000E+03  4.04687E+03  5.29353E+01  5.87054E-02  8.46781E+04  3.00000E+02  7.36000E+03  9.99900E-01    1    2    1   1     1     11  0.00000E+00
  2   14   14    4  4.05000E+03  4.03711E+03  5.14381E+01  2.87622E-02  1.06015E+05  3.00000E+02  7.56000E+03  9.99900E-01    1    2    1   1     1     11  0.00000E+00
  2   14   14    4  4.05000E+03  4.04474E+03  5.42047E+01  8.40949E-02  7.60727E+04  5.00000E+02  7.36000E+03  9.99900E-01    2    2    1   1     1     11  0.00000E+00
  2   14   14    4  4.05000E+03  4.03004E+03  5.05752E+01  1.15044E-02  1.90217E+05  5.00000E+02  7.56000E+03  9.99900E-01    2    2    1   1     1     11  0.00000E+00
  2   14   14    4  4.05000E+03  4.04113E+03  5.52784E+01  1.05569E-01  7.26858E+04  7.00000E+02  7.36000E+03  9.99900E-01    2    2    1   1     1     11  0.00000E+00
  1   27   10    1  8.05291E+03  4.51251E+03  2.83273E+02  1.00000E+00  1.64708E+05  7.00000E+02  7.56000E+03  9.99900E-01    2    2    1   1     1     11  0.00000E+00
  2   14   14    4  4.05000E+03  4.03673E+03  5.57834E+01  1.15667E-01  7.32441E+04  9.00000E+02  7.36000E+03  9.99900E-01    3    2    1   1     1     11  0.00000E+00
  1   27    8    1  8.05104E+03  4.91089E+03  2.83278E+02  1.00000E+00  1.38287E+05  9.00000E+02  7.56000E+03  9.99900E-01    3    2    1   1     1     11  0.00000E+00
  2   14   14    4  4.05000E+03  4.03193E+03  5.41384E+01  8.27678E-02  9.11038E+04  1.10000E+03  7.36000E+03  9.99900E-01    3    2    1   1     1     11  0.00000E+00
  1   27    7    1  8.04921E+03  5.29837E+03  2.83284E+02  1.00000E+00  1.19526E+05  1.10000E+03  7.56000E+03  9.99900E-01    3    2    1   1     1     11  0.00000E+00
  1   27   10    1  8.04650E+03  4.53475E+03  2.83273E+02  1.00000E+00  1.27868E+05  1.30000E+03  7.36000E+03  9.99900E-01    4    2    1   1     1     11  0.00000E+00
  1   27    6    1  8.04699E+03  5.68217E+03  2.83290E+02  1.00000E+00  1.04074E+05  1.30000E+03  7.56000E+03  9.99900E-01    4    2    1   1     1     11  0.00000E+00
  1   27    8    1  8.04354E+03  5.04204E+03  2.83278E+02  1.00000E+00  1.03468E+05  1.50000E+03  7.36000E+03  9.99900E-01    4    2    1   1     1     11  0.00000E+00
  1   27    6    1  8.04408E+03  5.98238E+03  2.83290E+02  1.00000E+00  9.27720E+04  1.50000E+03  7.56000E+03  9.99900E-01    4    2    1   1     1     11  0.00000E+00
  1   27    7    1  8.04044E+03  5.47037E+03  2.83284E+02  1.00000E+00  8.86572E+04  1.70000E+03  7.36000E+03  9.99900E-01    5    2    1   1     1     11  0.00000E+00
  1   27    5    1  8.04056E+03  6.27586E+03  2.83296E+02  1.00000E+00  8.21588E+04  1.70000E+03  7.56000E+03  9.99900E-01    5    2    1   1     1     11  0.00000E+00
  1   27    6    1  8.03663E+03  5.88536E+03  2.83290E+02  1.00000E+00  7.60235E+04  1.90000E+03  7.36000E+03  9.99900E-01    5    2    1   1     1     11  0.00000E+00
  1   27    4    1  8.03638E+03  6.56992E+03  2.83302E+02  1.00000E+00  7.14217E+04  1.90000E+03  7.56000E+03  9.99900E-01    5    2    1   1     1     11  0.00000E+00
  1   27    5    1  8.03165E+03  6.24725E+03  2.83296E+02  1.00000E+00  6.57807E+04  2.10000E+03  7.36000E+03  9.99900E-01    6    2    1   1     1     11  0.00000E+00
  1   27    4    1  8.03120E+03  6.79151E+03  2.83302E+02  1.00000E+00  6.33567E+04  2.10000E+03  7.56000E+03  9.99900E-01    6    2    1   1     1     11  0.00000E+00
  1   27    4    1  8.02556E+03  6.54713E+03  2.83302E+02  1.00000E+00  5.60023E+04  2.30000E+03  7.36000E+03  9.99900E-01    6    2    1   1     1     11  0.00000E+00
  1   27    3    1  8.02488E+03  6.99693E+03  2.83307E+02  1.00000E+00  5.43643E+04  2.30000E+03  7.56000E+03  9.99900E-01    6    2    1   1     1     11  0.00000E+00
  1   27    4    1  8.01798E+03  6.82998E+03  2.83302E+02  1.00000E+00  4.53817E+04  2.50000E+03  7.36000E+03  9.99900E-01    7    2    1   1     1     11  0.00000E+00
  1   27    3    1  8.01717E+03  7.18802E+03  2.83307E+02  1.00000E+00  4.60230E+04  2.50000E+03  7.56000E+03  9.99900E-01    7    2    1   1     1     11  0.00000E+00
  1   27    3    1  8.00841E+03  7.05582E+03  2.83307E+02  1.00000E+00  3.79033E+04  2.70000E+03  7.36000E+03  9.99900E-01    7    2    1   1     1     11  0.00000E+00
  1   27    2    1  8.00790E+03  7.34576E+03  2.83310E+02  1.00000E+00  3.73082E+04  2.70000E+03  7.56000E+03  9.99900E-01    7    2    1   1     1     11  0.00000E+00
  1   27    2    1  7.99586E+03  7.28070E+03  2.83310E+02  1.00000E+00  1.10733E+04  2.90000E+03  7.36000E+03  9.99900E-01    8    2    1   1     1     11  0.00000E+00
  1   27    2    1  7.99586E+03  7.50280E+03  2.83310E+02  1.00000E+00  1.10733E+04  2.90000E+03  7.56000E+03  9.99900E-01    8    2    1   1     1     11  0.00000E+00
  1   27    2    1  7.98267E+03  7.28781E+03  2.83310E+02  1.00000E+00  1.01667E+04  3.10000E+03  7.36000E+03  9.99900E-01    8    2    1   1     1     11  0.00000E+00
  1   27    2    1  7.98267E+03  7.50793E+03  2.83310E+02  1.00000E+00  1.01667E+04  3.10000E+03  7.56000E+03  9.99900E-01    8    2    1   1     1     11  0.00000E+00
  1   27    2    1  7.97103E+03  7.29374E+03  2.83310E+02  1.00000E+00  9.42827E+03  3.27500E+03  7.36000E+03  9.99900E-01    9    2    1   1     1     11  0.00000E+00
  1   27    2    1  7.97103E+03  7.51221E+03  2.83310E+02  1.00000E+00  9.42827E+03  3.27500E+03  7.56000E+03  9.99900E-01    9    2    1   1     1     11  0.00000E+00
  1   27    2    1  7.96099E+03  7.29869E+03  2.83310E+02  1.00000E+00  8.83252E+03  3.42500E+03  7.36000E+03  9.99900E-01    9    2    1   1     1     11  0.00000E+00
  1   27    2    1  7.96099E+03  7.51577E+03  2.83310E+02  1.00000E+00  8.83252E+03  3.42500E+03  7.56000E+03  9.99900E-01    9    2    1   1     1     11  0.00000E+00
  1   27    2    1  7.95257E+03  7.30265E+03  2.83310E+02  1.00000E+00  8.35921E+03  3.55000E+03  7.36000E+03  9.99900E-01   10    2    1   1     1     11  0.00000E+00
  1   27    2    1  7.95257E+03  7.51863E+03  2.83310E+02  1.00000E+00  8.35921E+03  3.55000E+03  7.56000E+03  9.99900E-01   10    2    1   1     1     11  0.00000E+00
  1   27    2    1  7.94581E+03  7.30575E+03  2.83310E+02  1.00000E+00  7.99526E+03  3.65000E+03  7.36000E+03  9.99900E-01   10    2    1   1     1     11  0.00000E+00
  1   27    2    1  7.94581E+03  7.52086E+03  2.83310E+02  1.00000E+00  7.99526E+03  3.65000E+03  7.56000E+03  9.99900E-01   10    2    1   1     1     11  0.00000E+00
  1   27    2    1  7.93986E+03  7.30838E+03  2.83310E+02  1.00000E+00  7.68661E+03  3.73750E+03  7.36000E+03  9.99900E-01   11    2    1   1     1     11  0.00000E+00
  1   27    2    1  7.93986E+03  7.52275E+03  2.83310E+02  1.00000E+00  7.68661E+03  3.73750E+03  7.56000E+03  9.99900E-01   11    2    1   1     1     11  0.00000E+00
  1   27    2    1  7.93476E+03  7.31059E+03  2.83310E+02  1.00000E+00  7.42924E+03  3.81250E+03  7.36000E+03  9.99900E-01   11    2    1   1     1     11  0.00000E+00
  1   27    2    1  7.93476E+03  7.52435E+03  2.83310E+02  1.00000E+00  7.42924E+03  3.81250E+03  7.56000E+03  9.99900E-01   11    2    1   1     1     11  0.00000E+00
  1   27    2    1  7.93049E+03  7.31240E+03  2.83310E+02  1.00000E+00  7.21948E+03  3.87500E+03  7.36000E+03  9.99900E-01   12    2    1   1     1     11  0.00000E+00
  1   27    2    1  7.93049E+03  7.52565E+03  2.83310E+02  1.00000E+00  7.21948E+03  3.87500E+03  7.56000E+03  9.99900E-01   12    2    1   1     1     11  0.00000E+00
  1   27    2    1  7.92706E+03  7.31382E+03  2.83310E+02  1.00000E+00  7.05482E+03  3.92500E+03  7.36000E+03  9.99900E-01   12    2    1   1     1     11  0.00000E+00
  1   27    2    1  7.92706E+03  7.52667E+03  2.83310E+02  1.00000E+00  7.05482E+03  3.92500E+03  7.56000E+03  9.99900E-01   12    2    1   1     1     11  0.00000E+00
  1   27    2    1  7.92432E+03  7.31493E+03  2.83310E+02  1.00000E+00  6.92495E+03  3.96500E+03  7.36000E+03  9.99900E-01   13    2    1   1     1     11  0.00000E+00
  1   27    2    1  7.92432E+03  7.52747E+03  2.83310E+02  1.00000E+00  6.92495E+03  3.96500E+03  7.56000E+03  9.99900E-01   13    2    1   1     1     11  0.00000E+00
  1   27    2    1  7.92226E+03  7.31576E+03  2.83310E+02  1.00000E+00  6.82869E+03  3.99500E+03  7.36000E+03  9.99900E-01   13    2    1   1     1     11  0.00000E+00
  1   27    2    1  7.92226E+03  7.52807E+03  2.83310E+02  1.00000E+00  6.82869E+03  3.99500E+03  7.56000E+03  9.99900E-01   13    2    1   1     1     11  0.00000E+00
  1   27    2    1  7.92054E+03  7.31645E+03  2.83310E+02  1.00000E+00  6.74917E+03  4.02000E+03  7.36000E+03  9.99900E-01   14    2    1   1     1     11  0.00000E+00
  1   27    2    1  7.92054E+03  7.52856E+03  2.83310E+02  1.00000E+00  6.74917E+03  4.02000E+03  7.56000E+03  9.99900E-01   14    2    1   1     1     11  0.00000E+00
  1   27    2    1  7.91917E+03  7.31699E+03  2.83310E+02  1.00000E+00  6.68602E+03  4.04000E+03  7.36000E+03  9.99900E-01   14    2    1   1     1     11  0.00000E+00
  1   27    2    1  7.91917E+03  7.52895E+03  2.83310E+02  1.00000E+00  6.68602E+03  4.04000E+03  7.56000E+03  9.99900E-01   14    2    1   1     1     11  0.00000E+00
  1   27    2    1  7.91745E+03  7.31767E+03  2.83310E+02  1.00000E+00  6.60767E+03  4.06500E+03  7.36000E+03  9.99900E-01   15    2    1   1     1     11  0.00000E+00
  1   27    2    1  7.91745E+03  7.52944E+03  2.83310E+02  1.00000E+00  6.60767E+03  4.06500E+03  7.56000E+03  9.99900E-01   15    2    1   1     1     11  0.00000E+00
  1   27    2    1  7.91538E+03  7.31847E+03  2.83310E+02  1.00000E+00  6.51447E+03  4.09500E+03  7.36000E+03  9.99900E-01   15    2    1   1     1     11  0.00000E+00
  1   27    2    1  7.91538E+03  7.53001E+03  2.83310E+02  1.00000E+00  6.51447E+03  4.09500E+03  7.56000E+03  9.99900E-01   15    2    1   1     1     11  0.00000E+00
  1   27    2    1  7.91262E+03  7.31952E+03  2.83310E+02  1.00000E+00  6.39163E+03  4.13500E+03  7.36000E+03  9.99900E-01   16    2    1   1     1     11  0.00000E+00
  1   27    2    1  7.91262E+03  7.53077E+03  2.83310E+02  1.00000E+00  6.39163E+03  4.13500E+03  7.56000E+03  9.99900E-01   16    2    1   1     1     11  0.00000E+00
  1   27    2    1  7.90917E+03  7.32082E+03  2.83310E+02  1.00000E+00  6.24022E+03  4.18500E+03  7.36000E+03  9.99900E-01   16    2    1   1     1     11  0.00000E+00
  1   27    2    1  7.90917E+03  7.53171E+03  2.83310E+02  1.00000E+00  6.24022E+03  4.18500E+03  7.56000E+03  9.99900E-01   16    2    1   1     1     11  0.00000E+00
  1   27    2    1  7.90484E+03  7.32241E+03  2.83310E+02  1.00000E+00  6.05441E+03  4.24750E+03  7.36000E+03  9.99900E-01   17    2    1   1     1     11  0.00000E+00
  1   27    2    1  7.90484E+03  7.53285E+03  2.83310E+02  1.00000E+00  6.05441E+03  4.24750E+03  7.56000E+03  9.99900E-01   17    2    1   1     1     11  0.00000E+00
  1   27    2    1  7.89964E+03  7.32426E+03  2.83310E+02  1.00000E+00  5.83616E+03  4.32250E+03  7.36000E+03  9.99900E-01   17    2    1   1     1     11  0.00000E+00
  1   27    2    1  7.89964E+03  7.53419E+03  2.83310E+02  1.00000E+00  5.83616E+03  4.32250E+03  7.56000E+03  9.99900E-01   17    2    1   1     1     11  0.00000E+00
  1   27    2    1  7.89355E+03  7.32636E+03  2.83310E+02  1.00000E+00  5.58812E+03  4.41000E+03  7.36000E+03  9.99900E-01   18    2    1   1     1     11  0.00000E+00