@ [ MODPATH Version 4.00 (V4, Release 2, 4-2001) (TREF=   0.183595E+06 ) ]
  1    5   19    1  1.85673E+03  3.46985E+03  3.01835E+02  1.00000E+00  6.46979E+03  4.01000E+03  4.01286E+03  7.14286E-02   14   14    1   3     6     11  0.00000E+00
  1    6   19    1  2.05923E+03  3.47715E+03  3.01436E+02  1.00000E+00  5.22317E+03  4.01000E+03  4.01286E+03  2.14286E-01   14   14    1   3     6     11  0.00000E+00
  1    6   19    1  2.26405E+03  3.48484E+03  3.01436E+02  1.00000E+00  4.08330E+03  4.01000E+03  4.01286E+03  3.57143E-01   14   14    1   3     6     11  0.00000E+00
  1    7   19    1  2.47117E+03  3.49243E+03  3.00956E+02  1.00000E+00  3.03129E+03  4.01000E+03  4.01286E+03  5.00000E-01   14   14    1   3     6     11  0.00000E+00
  1    7   18    1  2.68080E+03  3.50049E+03  3.00944E+02  1.00000E+00  2.05425E+03  4.01000E+03  4.01286E+03  6.42857E-01   14   14    1   3     6     11  0.00000E+00
  1    8   18    1  2.89422E+03  3.50872E+03  3.00380E+02  1.00000E+00  1.13984E+03  4.01000E+03  4.01286E+03  7.85714E-01   14   14    1   3     6     11  0.00000E+00
  1    9   18    1  3.43522E+03  3.69081E+03  2.91800E+02  1.00000E+00  3.39836E+02  4.01000E+03  4.01286E+03  9.28571E-01   14   14    1   3     6     61  0.00000E+00
  1    5   18    1  1.80570E+03  3.64400E+03  3.01827E+02  1.00000E+00  6.46883E+03  4.01000E+03  4.01857E+03  7.14286E-02   14   14    1   3     6     11  0.00000E+00
  1    6   18    1  2.00310E+03  3.64883E+03  3.01426E+02  1.00000E+00  5.22399E+03  4.01000E+03  4.01857E+03  2.14286E-01   14   14    1   3     6     11  0.00000E+00
  1    6   18    1  2.20303E+03  3.65424E+03  3.01426E+02  1.00000E+00  4.08660E+03  4.01000E+03  4.01857E+03  3.57143E-01   14   14    1   3     6     11  0.00000E+00
  1    7   18    1  2.40554E+03  3.65923E+03  3.00944E+02  1.00000E+00  3.03374E+03  4.01000E+03  4.01857E+03  5.00000E-01   14   14    1   3     6     11  0.00000E+00
  1    7   18    1  2.61079E+03  3.66493E+03  3.00944E+02  1.00000E+00  2.05702E+03  4.01000E+03  4.01857E+03  6.42857E-01   14   14    1   3     6     11  0.00000E+00
  1    8   18    1  2.81888E+03  3.67032E+03  3.00380E+02  1.00000E+00  1.14031E+03  4.01000E+03  4.01857E+03  7.85714E-01   14   14    1   3     6     11  0.00000E+00
  1    9   17    1  3.38105E+03  3.79921E+03  2.91451E+02  1.00000E+00  3.40746E+02  4.01000E+03  4.01857E+03  9.28571E-01   14   14    1   3     6     61  0.00000E+00
  1    5   17    1  1.77088E+03  3.83324E+03  3.01823E+02  1.00000E+00  6.46378E+03  4.01000E+03  4.02429E+03  7.14286E-02   14   14    1   3     6     11  0.00000E+00
  1    5   17    1  1.96450E+03  3.83572E+03  3.01823E+02  1.00000E+00  5.22150E+03  4.01000E+03  4.02429E+03  2.14286E-01   14   14    1   3     6     11  0.00000E+00
  1    6   17    1  2.16065E+03  3.83841E+03  3.01421E+02  1.00000E+00  4.08550E+03  4.01000E+03  4.02429E+03  3.57143E-01   14   14    1   3     6     11  0.00000E+00
  1    6   17    1  2.35951E+03  3.84097E+03  3.01421E+02  1.00000E+00  3.03405E+03  4.01000E+03  4.02429E+03  5.00000E-01   14   14    1   3     6     11  0.00000E+00
  1    7   17    1  2.56112E+03  3.84380E+03  3.00938E+02  1.00000E+00  2.05775E+03  4.01000E+03  4.02429E+03  6.42857E-01   14   14    1   3     6     11  0.00000E+00
  1    7   17    1  2.76575E+03  3.84654E+03  3.00938E+02  1.00000E+00  1.14123E+03  4.01000E+03  4.02429E+03  7.85714E-01   14   14    1   3     6     11  0.00000E+00
  1    9   16    1  3.33619E+03  3.91225E+03  2.91290E+02  1.00000E+00  3.41173E+02  4.01000E+03  4.02429E+03  9.28571E-01   14   14    1   3     6     61  0.00000E+00
  1    5   14    1  1.76007E+03  4.03017E+03  3.01821E+02  1.00000E+00  6.45534E+03  4.01000E+03  4.03000E+03  7.14286E-02   14   14    1   3     6     11  0.00000E+00
  1    5   14    1  1.95227E+03  4.03014E+03  3.01821E+02  1.00000E+00  5.21601E+03  4.01000E+03  4.03000E+03  2.14286E-01   14   14    1   3     6     11  0.00000E+00
  1    6   14    1  2.14702E+03  4.03010E+03  3.01419E+02  1.00000E+00  4.08209E+03  4.01000E+03  4.03000E+03  3.57143E-01   14   14    1   3     6     11  0.00000E+00
  1    6   14    1  2.34453E+03  4.03006E+03  3.01419E+02  1.00000E+00  3.03248E+03  4.01000E+03  4.03000E+03  5.00000E-01   14   14    1   3     6     11  0.00000E+00
  1    7   14    1  2.54484E+03  4.03003E+03  3.00935E+02  1.00000E+00  2.05725E+03  4.01000E+03  4.03000E+03  6.42857E-01   14   14    1   3     6     11  0.00000E+00
  1    7   14    1  2.74825E+03  4.03000E+03  3.00935E+02  1.00000E+00  1.14176E+03  4.01000E+03  4.03000E+03  7.85714E-01   14   14    1   3     6     11  0.00000E+00
  1    9   14    1  3.31750E+03  4.03000E+03  2.91234E+02  1.00000E+00  3.41371E+02  4.01000E+03  4.03000E+03  9.28571E-01   14   14    1   3     6     61  0.00000E+00
  1    5   11    1  1.77089E+03  4.22708E+03  3.01823E+02  1.00000E+00  6.46377E+03  4.01000E+03  4.03571E+03  7.14286E-02   14   14    1   3     6     11  0.00000E+00
  1    5   11    1  1.96451E+03  4.22453E+03  3.01823E+02  1.00000E+00  5.22149E+03  4.01000E+03  4.03571E+03  2.14286E-01   14   14    1   3     6     11  0.00000E+00
  1    6   11    1  2.16066E+03  4.22177E+03  3.01422E+02  1.00000E+00  4.08549E+03  4.01000E+03  4.03571E+03  3.57143E-01   14   14    1   3     6     11  0.00000E+00
  1    6   11    1  2.35951E+03  4.21915E+03  3.01422E+02  1.00000E+00  3.03405E+03  4.01000E+03  4.03571E+03  5.00000E-01   14   14    1   3     6     11  0.00000E+00
  1    7   11    1  2.56112E+03  4.21626E+03  3.00938E+02  1.00000E+00  2.05775E+03  4.01000E+03  4.03571E+03  6.42857E-01   14   14    1   3     6     11  0.00000E+00
  1    7   11    1  2.76575E+03  4.21346E+03  3.00938E+02  1.00000E+00  1.14123E+03  4.01000E+03  4.03571E+03  7.85714E-01   14   14    1   3     6     11  0.00000E+00
  1    9   12    1  3.33619E+03  4.14775E+03  2.91290E+02  1.00000E+00  3.41177E+02  4.01000E+03  4.03571E+03  9.28571E-01   14   14    1   3     6     61  0.00000E+00
  1    5   10    1  1.80571E+03  4.41631E+03  3.01827E+02  1.00000E+00  6.46881E+03  4.01000E+03  4.04143E+03  7.14286E-02   14   14    1   3     6     11  0.00000E+00
  1    6   10    1  2.00311E+03  4.41140E+03  3.01426E+02  1.00000E+00  5.22397E+03  4.01000E+03  4.04143E+03  2.14286E-01   14   14    1   3     6     11  0.00000E+00
  1    6   10    1  2.20303E+03  4.40592E+03  3.01426E+02  1.00000E+00  4.08659E+03  4.01000E+03  4.04143E+03  3.57143E-01   14   14    1   3     6     11  0.00000E+00
  1    7   10    1  2.40554E+03  4.40088E+03  3.00944E+02  1.00000E+00  3.03373E+03  4.01000E+03  4.04143E+03  5.00000E-01   14   14    1   3     6     11  0.00000E+00
  1    7   10    1  2.61079E+03  4.39513E+03  3.00944E+02  1.00000E+00  2.05702E+03  4.01000E+03  4.04143E+03  6.42857E-01   14   14    1   3     6     11  0.00000E+00
  1    8   10    1  2.81889E+03  4.38968E+03  3.00381E+02  1.00000E+00  1.14031E+03  4.01000E+03  4.04143E+03  7.85714E-01   14   14    1   3     6     11  0.00000E+00
  1    9   11    1  3.38105E+03  4.26079E+03  2.91451E+02  1.00000E+00  3.40748E+02  4.01000E+03  4.04143E+03  9.28571E-01   14   14    1   3     6     61  0.00000E+00
  1    5    9    1  1.85674E+03  4.59042E+03  3.01835E+02  1.00000E+00  6.46983E+03  4.01000E+03  4.04714E+03  7.14286E-02   14   14    1   3     6     11  0.00000E+00
  1    6    9    1  2.05923E+03  4.58305E+03  3.01436E+02  1.00000E+00  5.22321E+03  4.01000E+03  4.04714E+03  2.14286E-01   14   14    1   3     6     11  0.00000E+00
  1    6    9    1  2.26406E+03  4.57531E+03  3.01436E+02  1.00000E+00  4.08332E+03  4.01000E+03  4.04714E+03  3.57143E-01   14   14    1   3     6     11  0.00000E+00
  1    7    9    1  2.47118E+03  4.56767E+03  3.00956E+02  1.00000E+00  3.03131E+03  4.01000E+03  4.04714E+03  5.00000E-01   14   14    1   3     6     11  0.00000E+00
  1    7   10    1  2.68081E+03  4.55957E+03  3.00944E+02  1.00000E+00  2.05424E+03  4.01000E+03  4.04714E+03  6.42857E-01   14   14    1   3     6     11  0.00000E+00
  1    8   10    1  2.89422E+03  4.55129E+03  3.00381E+02  1.00000E+00  1.13984E+03  4.01000E+03  4.04714E+03  7.85714E-01   14   14    1   3     6     11  0.00000E+00
  1    9   10    1  3.43523E+03  4.36919E+03  2.91800E+02  1.00000E+00  3.39833E+02  4.01000E+03  4.04714E+03  9.28571E-01   14   14    1   3     6     61  0.00000E+00
  1    7   20    1  2.77195E+03  3.04763E+03  3.00981E+02  1.00000E+00  6.61511E+03  4.05000E+03  4.01286E+03  7.14286E-02   14   14    1   3     6     11  0.00000E+00
  1    8   20    1  3.08553E+03  3.06759E+03  3.00426E+02  1.00000E+00  5.31704E+03  4.05000E+03  4.01286E+03  2.14286E-01   14   14    1   3     6     11  0.00000E+00
  1    9   20    1  3.40229E+03  3.08769E+03  2.99872E+02  1.00000E+00  4.13232E+03  4.05000E+03  4.01286E+03  3.57143E-01   14   14    1   3     6     11  0.00000E+00
  1   11   20    1  3.72195E+03  3.10806E+03  2.99118E+02  1.00000E+00  3.04393E+03  4.05000E+03  4.01286E+03  5.00000E-01   14   14    1   3     6     11  0.00000E+00
  1   14   20    1  4.04418E+03  3.12804E+03  2.98623E+02  1.00000E+00  2.04062E+03  4.05000E+03  4.01286E+03  6.42857E-01   14   14    1   3     6     11  0.00000E+00
  1   18   20    1  4.36877E+03  3.14640E+03  2.97710E+02  1.00000E+00  1.11533E+03  4.05000E+03  4.01286E+03  7.85714E-01   14   14    1   3     6     11  0.00000E+00
  1   18   18    1  4.38484E+03  3.57081E+03  2.88951E+02  1.00000E+00  3.33127E+02  4.05000E+03  4.01286E+03  9.28571E-01   14   14    1   3     6     61  0.00000E+00
  1    8   19    1  2.93650E+03  3.28204E+03  3.00396E+02  1.00000E+00  6.48378E+03  4.05000E+03  4.01857E+03  7.14286E-02   14   14    1   3     6     11  0.00000E+00
  1    9   19    1  3.25639E+03  3.29891E+03  2.99837E+02  1.00000E+00  5.24135E+03  4.05000E+03  4.01857E+03  2.14286E-01   14   14    1   3     6     11  0.00000E+00
  1   10   19    1  3.58206E+03  3.31673E+03  2.99401E+02  1.00000E+00  4.09492E+03  4.05000E+03  4.01857E+03  3.57143E-01   14   14    1   3     6     11  0.00000E+00
  1   12   19    1  3.91348E+03  3.33469E+03  2.98839E+02  1.00000E+00  3.02837E+03  4.05000E+03  4.01857E+03  5.00000E-01   14   14    1   3     6     11  0.00000E+00
  1   17   19    1  4.25046E+03  3.35173E+03  2.98054E+02  1.00000E+00  2.03423E+03  4.05000E+03  4.01857E+03  6.42857E-01   14   14    1   3     6     11  0.00000E+00
  1   19   19    1  4.59274E+03  3.36660E+03  2.97092E+02  1.00000E+00  1.11171E+03  4.05000E+03  4.01857E+03  7.85714E-01   14   14    1   3     6     11  0.00000E+00
  1   18   17    1  4.50380E+03  3.70241E+03  2.88234E+02  1.00000E+00  3.32319E+02  4.05000E+03  4.01857E+03  9.28571E-01   14   14    1   3     6     61  0.00000E+00
  1    8   18    1  3.07173E+03  3.57954E+03  3.00380E+02  1.00000E+00  6.41934E+03  4.05000E+03  4.02429E+03  7.14286E-02   14   14    1   3     6     11  0.00000E+00
  1    9   18    1  3.39860E+03  3.59131E+03  2.99818E+02  1.00000E+00  5.21026E+03  4.05000E+03  4.02429E+03  2.14286E-01   14   14    1   3     6     11  0.00000E+00
  1   11   18    1  3.73354E+03  3.60376E+03  2.99057E+02  1.00000E+00  4.08277E+03  4.05000E+03  4.02429E+03  3.57143E-01   14   14    1   3     6     11  0.00000E+00
  1   15   18    1  4.07694E+03  3.61635E+03  2.98459E+02  1.00000E+00  3.02371E+03  4.05000E+03  4.02429E+03  5.00000E-01   14   14    1   3     6     11  0.00000E+00
  1   18   18    1  4.42871E+03  3.62778E+03  2.97650E+02  1.00000E+00  2.02996E+03  4.05000E+03  4.02429E+03  6.42857E-01   14   14    1   3     6     11  0.00000E+00
  1   19   18    1  4.78825E+03  3.63709E+03  2.97073E+02  1.00000E+00  1.10793E+03  4.05000E+03  4.02429E+03  7.85714E-01   14   14    1   3     6     11  0.00000E+00
  1   19   16    1  4.58025E+03  3.85054E+03  2.88911E+02  1.00000E+00  3.31927E+02  4.05000E+03  4.02429E+03  9.28571E-01   14   14    1   3     6     61  0.00000E+00
  1    8   14    1  3.14395E+03  4.03012E+03  3.00370E+02  1.00000E+00  6.33792E+03  4.05000E+03  4.03000E+03  7.14286E-02   14   14    1   3     6     11  0.00000E+00
  1    9   14    1  3.46852E+03  4.03007E+03  2.99805E+02  1.00000E+00  5.16733E+03  4.05000E+03  4.03000E+03  2.14286E-01   14   14    1   3     6     11  0.00000E+00
  1   11   14    1  3.80310E+03  4.03003E+03  2.99042E+02  1.00000E+00  4.06563E+03  4.05000E+03  4.03000E+03  3.57143E-01   14   14    1   3     6     11  0.00000E+00
  1   16   14    1  4.14882E+03  4.03000E+03  2.98279E+02  1.00000E+00  3.01875E+03  4.05000E+03  4.03000E+03  5.00000E-01   14   14    1   3     6     11  0.00000E+00
  1   18   14    1  4.50578E+03  4.02999E+03  2.97635E+02  1.00000E+00  2.02786E+03  4.05000E+03  4.03000E+03  6.42857E-01   14   14    1   3     6     11  0.00000E+00
  1   20   14    1  4.87259E+03  4.02999E+03  2.96180E+02  1.00000E+00  1.10595E+03  4.05000E+03  4.03000E+03  7.85714E-01   14   14    1   3     6     11  0.00000E+00
  1   19   14    1  4.61017E+03  4.03000E+03  2.88853E+02  1.00000E+00  3.32279E+02  4.05000E+03  4.03000E+03  9.28571E-01   14   14    1   3     6     61  0.00000E+00
  1    8   10    1  3.07167E+03  4.48062E+03  3.00381E+02  1.00000E+00  6.41935E+03  4.05000E+03  4.03571E+03  7.14286E-02   14   14    1   3     6     11  0.00000E+00
  1    9   10    1  3.39854E+03  4.46879E+03  2.99819E+02  1.00000E+00  5.21026E+03  4.05000E+03  4.03571E+03  2.14286E-01   14   14    1   3     6     11  0.00000E+00
  1   11   10    1  3.73348E+03  4.45629E+03  2.99057E+02  1.00000E+00  4.08277E+03  4.05000E+03  4.03571E+03  3.57143E-01   14   14    1   3     6     11  0.00000E+00
  1   15   10    1  4.07690E+03  4.44366E+03  2.98459E+02  1.00000E+00  3.02371E+03  4.05000E+03  4.03571E+03  5.00000E-01   14   14    1   3     6     11  0.00000E+00
  1   18   10    1  4.42871E+03  4.43222E+03  2.97650E+02  1.00000E+00  2.02996E+03  4.05000E+03  4.03571E+03  6.42857E-01   14   14    1   3     6     11  0.00000E+00
  1   19   10    1  4.78825E+03  4.42289E+03  2.97073E+02  1.00000E+00  1.10794E+03  4.05000E+03  4.03571E+03  7.85714E-01   14   14    1   3     6     11  0.00000E+00
  1   19   12    1  4.58025E+03  4.20946E+03  2.88911E+02  1.00000E+00  3.31926E+02  4.05000E+03  4.03571E+03  9.28571E-01   14   14    1   3     6     61  0.00000E+00
  1    8    9    1  2.93642E+03  4.77809E+03  3.00396E+02  1.00000E+00  6.48378E+03  4.05000E+03  4.04143E+03  7.14286E-02   14   14    1   3     6     11  0.00000E+00
  1    9    9    1  3.25631E+03  4.76118E+03  2.99837E+02  1.00000E+00  5.24134E+03  4.05000E+03  4.04143E+03  2.14286E-01   14   14    1   3     6     11  0.00000E+00
  1   10    9    1  3.58198E+03  4.74333E+03  2.99401E+02  1.00000E+00  4.09492E+03  4.05000E+03  4.04143E+03  3.57143E-01   14   14    1   3     6     11  0.00000E+00
  1   12    9    1  3.91341E+03  4.72535E+03  2.98839E+02  1.00000E+00  3.02837E+03  4.05000E+03  4.04143E+03  5.00000E-01   14   14    1   3     6     11  0.00000E+00
  1   17    9    1  4.25043E+03  4.70829E+03  2.98054E+02  1.00000E+00  2.03424E+03  4.05000E+03  4.04143E+03  6.42857E-01   14   14    1   3     6     11  0.00000E+00
  1   19    9    1  4.59273E+03  4.69340E+03  2.97092E+02  1.00000E+00  1.11172E+03  4.05000E+03  4.04143E+03  7.85714E-01   14   14    1   3     6     11  0.00000E+00
  1   18   11    1  4.50380E+03  4.35759E+03  2.88234E+02  1.00000E+00  3.32319E+02  4.05000E+03  4.04143E+03  9.28571E-01   14   14    1   3     6     61  0.00000E+00
  1    7    8    1  2.77186E+03  5.01248E+03  3.00981E+02  1.00000E+00  6.61510E+03  4.05000E+03  4.04714E+03  7.14286E-02   14   14    1   3     6     11  0.00000E+00
  1    8    8    1  3.08543E+03  4.99249E+03  3.00427E+02  1.00000E+00  5.31703E+03  4.05000E+03  4.04714E+03  2.14286E-01   14   14    1   3     6     11  0.00000E+00
  1    9    8    1  3.40220E+03  4.97236E+03  2.99872E+02  1.00000E+00  4.13232E+03  4.05000E+03  4.04714E+03  3.57143E-01   14   14    1   3     6     11  0.00000E+00
  1   11    8    1  3.72187E+03  4.95196E+03  2.99119E+02  1.00000E+00  3.04394E+03  4.05000E+03  4.04714E+03  5.00000E-01   14   14    1   3     6     11  0.00000E+00
  1   14    8    1  4.04414E+03  4.93197E+03  2.98623E+02  1.00000E+00  2.04062E+03  4.05000E+03  4.04714E+03  6.42857E-01   14   14    1   3     6     11  0.00000E+00
  1   18    8    1  4.36875E+03  4.91361E+03  2.97710E+02  1.00000E+00  1.11533E+03  4.05000E+03  4.04714E+03  7.85714E-01   14   14    1   3     6     11  0.00000E+00
  1   18   10    1  4.38483E+03  4.48920E+03  2.88951E+02  1.00000E+00  3.33125E+02  4.05000E+03  4.04714E+03  9.28571E-01   14   14    1   3     6     61  0.00000E+00
  1    5   19    1  1.93455E+03  3.30757E+03  3.01835E+02  1.00000E+00  6.46814E+03  4.01286E+03  4.01000E+03  7.14286E-02   14   14    1   3     6     11  0.00000E+00
  1    6   19    1  2.14542E+03  3.31743E+03  3.01436E+02  1.00000E+00  5.22381E+03  4.01286E+03  4.01000E+03  2.14286E-01   14   14    1   3     6     11  0.00000E+00
  1    6   19    1  2.35882E+03  3.32694E+03  3.01436E+02  1.00000E+00  4.08311E+03  4.01286E+03  4.01000E+03  3.57143E-01   14   14    1   3     6     11  0.00000E+00
  1    7   19    1  2.57472E+03  3.33728E+03  3.00956E+02  1.00000E+00  3.03224E+03  4.01286E+03  4.01000E+03  5.00000E-01   14   14    1   3     6     11  0.00000E+00
  1    7   19    1  2.79327E+03  3.34717E+03  3.00956E+02  1.00000E+00  2.05292E+03  4.01286E+03  4.01000E+03  6.42857E-01   14   14    1   3     6     11  0.00000E+00
  1    8   19    1  3.01451E+03  3.35835E+03  3.00396E+02  1.00000E+00  1.13938E+03  4.01286E+03  4.01000E+03  7.85714E-01   14   14    1   3     6     11  0.00000E+00
  1   10   18    1  3.52528E+03  3.59322E+03  2.90462E+02  1.00000E+00  3.39062E+02  4.01286E+03  4.01000E+03  9.28571E-01   14   14    1   3     6     61  0.00000E+00
  1    6   20    1  2.00638E+03  3.15272E+03  3.01456E+02  1.00000E+00  6.49448E+03  4.01857E+03  4.01000E+03  7.14286E-02   14   14    1   3     6     11  0.00000E+00
  1    6   20    1  2.22552E+03  3.16511E+03  3.01456E+02  1.00000E+00  5.23687E+03  4.01857E+03  4.01000E+03  2.14286E-01   14   14    1   3     6     11  0.00000E+00
  1    7   20    1  2.44650E+03  3.17687E+03  3.00981E+02  1.00000E+00  4.08737E+03  4.01857E+03  4.01000E+03  3.57143E-01   14   14    1   3     6     11  0.00000E+00
  1    7   20    1  2.66930E+03  3.18949E+03  3.00981E+02  1.00000E+00  3.03104E+03  4.01857E+03  4.01000E+03  5.00000E-01   14   14    1   3     6     11  0.00000E+00
  1    8   19    1  2.89422E+03  3.20215E+03  3.00396E+02  1.00000E+00  2.05179E+03  4.01857E+03  4.01000E+03  6.42857E-01   14   14    1   3     6     11  0.00000E+00
  1    8   19    1  3.12348E+03  3.21528E+03  3.00396E+02  1.00000E+00  1.13632E+03  4.01857E+03  4.01000E+03  7.85714E-01   14   14    1   3     6     11  0.00000E+00
  1   10   18    1  3.60326E+03  3.51137E+03  2.90462E+02  1.00000E+00  3.38607E+02  4.01857E+03  4.01000E+03  9.28571E-01   14   14    1   3     6     61  0.00000E+00
  1    6   20    1  2.10866E+03  3.02811E+03  3.01456E+02  1.00000E+00  6.52087E+03  4.02429E+03  4.01000E+03  7.14286E-02   14   14    1   3     6     11  0.00000E+00
  1    6   20    1  2.34048E+03  3.04168E+03  3.01456E+02  1.00000E+00  5.25415E+03  4.02429E+03  4.01000E+03  2.14286E-01   14   14    1   3     6     11  0.00000E+00
  1    7   20    1  2.57430E+03  3.05595E+03  3.00981E+02  1.00000E+00  4.09990E+03  4.02429E+03  4.01000E+03  3.57143E-01   14   14    1   3     6     11  0.00000E+00
  1    8   20    1  2.81012E+03  3.06977E+03  3.00426E+02  1.00000E+00  3.03599E+03  4.02429E+03  4.01000E+03  5.00000E-01   14   14    1   3     6     11  0.00000E+00
  1    8   20    1  3.04787E+03  3.08498E+03  3.00426E+02  1.00000E+00  2.05290E+03  4.02429E+03  4.01000E+03  6.42857E-01   14   14    1   3     6     11  0.00000E+00
  1    9   20    1  3.28748E+03  3.09985E+03  2.99872E+02  1.00000E+00  1.13513E+03  4.02429E+03  4.01000E+03  7.85714E-01   14   14    1   3     6     11  0.00000E+00
  1   11   19    1  3.71956E+03  3.44018E+03  2.90816E+02  1.00000E+00  3.38238E+02  4.02429E+03  4.01000E+03  9.28571E-01   14   14    1   3     6     61  0.00000E+00
  1    6   20    1  2.22125E+03  2.92134E+03  3.01456E+02  1.00000E+00  6.51074E+03  4.03000E+03  4.01000E+03  7.14286E-02   14   14    1   3     6     11  0.00000E+00
  1    7   20    1  2.46494E+03  2.93661E+03  3.00981E+02  1.00000E+00  5.24703E+03  4.03000E+03  4.01000E+03  2.14286E-01   14   14    1   3     6     11  0.00000E+00
  1    7   20    1  2.71084E+03  2.95251E+03  3.00981E+02  1.00000E+00  4.09409E+03  4.03000E+03  4.01000E+03  3.57143E-01   14   14    1   3     6     11  0.00000E+00
  1    8   20    1  2.95887E+03  2.96885E+03  3.00426E+02  1.00000E+00  3.03343E+03  4.03000E+03  4.01000E+03  5.00000E-01   14   14    1   3     6     11  0.00000E+00
  1    9   20    1  3.20897E+03  2.98498E+03  2.99872E+02  1.00000E+00  2.04867E+03  4.03000E+03  4.01000E+03  6.42857E-01   14   14    1   3     6     11  0.00000E+00
  1    9   20    1  3.46101E+03  3.00197E+03  2.99872E+02  1.00000E+00  1.13272E+03  4.03000E+03  4.01000E+03  7.85714E-01   14   14    1   3     6     11  0.00000E+00
  1   11   19    1  3.84294E+03  3.39282E+03  2.90816E+02  1.00000E+00  3.37962E+02  4.03000E+03  4.01000E+03  9.28571E-01   14   14    1   3     6     61  0.00000E+00
  1    6   20    1  2.34497E+03  2.85581E+03  3.01456E+02  1.00000E+00  6.50937E+03  4.03571E+03  4.01000E+03  7.14286E-02   14   14    1   3     6     11  0.00000E+00
  1    7   20    1  2.60236E+03  2.87330E+03  3.00981E+02  1.00000E+00  5.24696E+03  4.03571E+03  4.01000E+03  2.14286E-01   14   14    1   3     6     11  0.00000E+00
  1    8   20    1  2.86215E+03  2.89052E+03  3.00426E+02  1.00000E+00  4.09281E+03  4.03571E+03  4.01000E+03  3.57143E-01   14   14    1   3     6     11  0.00000E+00
  1    8   20    1  3.12427E+03  2.90850E+03  3.00426E+02  1.00000E+00  3.03084E+03  4.03571E+03  4.01000E+03  5.00000E-01   14   14    1   3     6     11  0.00000E+00
  1    9   20    1  3.38858E+03  2.92667E+03  2.99872E+02  1.00000E+00  2.04661E+03  4.03571E+03  4.01000E+03  6.42857E-01   14   14    1   3     6     11  0.00000E+00
  1   10   20    1  3.65493E+03  2.94483E+03  2.99439E+02  1.00000E+00  1.12944E+03  4.03571E+03  4.01000E+03  7.85714E-01   14   14    1   3     6     11  0.00000E+00
  1   13   19    1  3.97778E+03  3.38114E+03  2.90263E+02  1.00000E+00  3.37031E+02  4.03571E+03  4.01000E+03  9.28571E-01   14   14    1   3     6     61  0.00000E+00
  1    7   20    1  2.48287E+03  2.84423E+03  3.00981E+02  1.00000E+00  6.52385E+03  4.04143E+03  4.01000E+03  7.14286E-02   14   14    1   3     6     11  0.00000E+00
  1    7   20    1  2.75658E+03  2.86262E+03  3.00981E+02  1.00000E+00  5.25539E+03  4.04143E+03  4.01000E+03  2.14286E-01   14   14    1   3     6     11  0.00000E+00
  1    8   20    1  3.03290E+03  2.88194E+03  3.00426E+02  1.00000E+00  4.09845E+03  4.04143E+03  4.01000E+03  3.57143E-01   14   14    1   3     6     11  0.00000E+00
  1    9   20    1  3.31175E+03  2.90106E+03  2.99872E+02  1.00000E+00  3.03190E+03  4.04143E+03  4.01000E+03  5.00000E-01   14   14    1   3     6     11  0.00000E+00
  1   10   20    1  3.59292E+03  2.92047E+03  2.99439E+02  1.00000E+00  2.04413E+03  4.04143E+03  4.01000E+03  6.42857E-01   14   14    1   3     6     11  0.00000E+00
  1   12   20    1  3.87619E+03  2.93965E+03  2.98880E+02  1.00000E+00  1.12541E+03  4.04143E+03  4.01000E+03  7.85714E-01   14   14    1   3     6     11  0.00000E+00
  1   16   19    1  4.11991E+03  3.41333E+03  2.89995E+02  1.00000E+00  3.35589E+02  4.04143E+03  4.01000E+03  9.28571E-01   14   14    1   3     6     61  0.00000E+00
  1    7   20    1  2.62863E+03  2.90655E+03  3.00981E+02  1.00000E+00  6.55761E+03  4.04714E+03  4.01000E+03  7.14286E-02   14   14    1   3     6     11  0.00000E+00
  1    8   20    1  2.92113E+03  2.92590E+03  3.00426E+02  1.00000E+00  5.27854E+03  4.04714E+03  4.01000E+03  2.14286E-01   14   14    1   3     6     11  0.00000E+00
  1    9   20    1  3.21655E+03  2.94549E+03  2.99872E+02  1.00000E+00  4.10987E+03  4.04714E+03  4.01000E+03  3.57143E-01   14   14    1   3     6     11  0.00000E+00
  1   10   20    1  3.51467E+03  2.96581E+03  2.99439E+02  1.00000E+00  3.03575E+03  4.04714E+03  4.01000E+03  5.00000E-01   14   14    1   3     6     11  0.00000E+00
  1   11   20    1  3.81523E+03  2.98601E+03  2.99118E+02  1.00000E+00  2.04228E+03  4.04714E+03  4.01000E+03  6.42857E-01   14   14    1   3     6     11  0.00000E+00
  1   16   20    1  4.11798E+03  3.00533E+03  2.98358E+02  1.00000E+00  1.12078E+03  4.04714E+03  4.01000E+03  7.85714E-01   14   14    1   3     6     11  0.00000E+00
  1   17   19    1  4.26524E+03  3.48412E+03  2.89928E+02  1.00000E+00  3.33945E+02  4.04714E+03  4.01000E+03  9.28571E-01   14   14    1   3     6     61  0.00000E+00
  1    5    9    1  1.93455E+03  4.75265E+03  3.01835E+02  1.00000E+00  6.46811E+03  4.01286E+03  4.05000E+03  7.14286E-02   14   14    1   3     6     11  0.00000E+00
  1    6    9    1  2.14543E+03  4.74273E+03  3.01436E+02  1.00000E+00  5.22379E+03  4.01286E+03  4.05000E+03  2.14286E-01   14   14    1   3     6     11  0.00000E+00
  1    6    9    1  2.35881E+03  4.73317E+03  3.01436E+02  1.00000E+00  4.08310E+03  4.01286E+03  4.05000E+03  3.57143E-01   14   14    1   3     6     11  0.00000E+00
  1    7    9    1  2.57472E+03  4.72279E+03  3.00956E+02  1.00000E+00  3.03225E+03  4.01286E+03  4.05000E+03  5.00000E-01   14   14    1   3     6     11  0.00000E+00
  1    7    9    1  2.79326E+03  4.71286E+03  3.00956E+02  1.00000E+00  2.05293E+03  4.01286E+03  4.05000E+03  6.42857E-01   14   14    1   3     6     11  0.00000E+00
  1    8    9    1  3.01451E+03  4.70164E+03  3.00396E+02  1.00000E+00  1.13938E+03  4.01286E+03  4.05000E+03  7.85714E-01   14   14    1   3     6     11  0.00000E+00
  1   10   10    1  3.52528E+03  4.46678E+03  2.90462E+02  1.00000E+00  3.39063E+02  4.01286E+03  4.05000E+03  9.28571E-01   14   14    1   3     6     61  0.00000E+00
  1    6    8    1  2.00637E+03  4.90749E+03  3.01456E+02  1.00000E+00  6.49454E+03  4.01857E+03  4.05000E+03  7.14286E-02   14   14    1   3     6     11  0.00000E+00
  1    6    8    1  2.22552E+03  4.89505E+03  3.01456E+02  1.00000E+00  5.23691E+03  4.01857E+03  4.05000E+03  2.14286E-01   14   14    1   3     6     11  0.00000E+00
  1    7    8    1  2.44650E+03  4.88325E+03  3.00981E+02  1.00000E+00  4.08740E+03  4.01857E+03  4.05000E+03  3.57143E-01   14   14    1   3     6     11  0.00000E+00
  1    7    8    1  2.66930E+03  4.87059E+03  3.00981E+02  1.00000E+00  3.03106E+03  4.01857E+03  4.05000E+03  5.00000E-01   14   14    1   3     6     11  0.00000E+00
  1    8    9    1  2.89422E+03  4.85789E+03  3.00396E+02  1.00000E+00  2.05180E+03  4.01857E+03  4.05000E+03  6.42857E-01   14   14    1   3     6     11  0.00000E+00
  1    8    9    1  3.12349E+03  4.84473E+03  3.00396E+02  1.00000E+00  1.13632E+03  4.01857E+03  4.05000E+03  7.85714E-01   14   14    1   3     6     11  0.00000E+00
  1   10   10    1  3.60327E+03  4.54863E+03  2.90462E+02  1.00000E+00  3.38604E+02  4.01857E+03  4.05000E+03  9.28571E-01   14   14    1   3     6     61  0.00000E+00
  1    6    8    1  2.10865E+03  5.03205E+03  3.01456E+02  1.00000E+00  6.52083E+03  4.02429E+03  4.05000E+03  7.14286E-02   14   14    1   3     6     11  0.00000E+00
  1    6    8    1  2.34046E+03  5.01844E+03  3.01456E+02  1.00000E+00  5.25414E+03  4.02429E+03  4.05000E+03  2.14286E-01   14   14    1   3     6     11  0.00000E+00
  1    7    8    1  2.57428E+03  5.00413E+03  3.00981E+02  1.00000E+00  4.09991E+03  4.02429E+03  4.05000E+03  3.57143E-01   14   14    1   3     6     11  0.00000E+00
  1    8    8    1  2.81010E+03  4.99028E+03  3.00427E+02  1.00000E+00  3.03600E+03  4.02429E+03  4.05000E+03  5.00000E-01   14   14    1   3     6     11  0.00000E+00
  1    8    8    1  3.04786E+03  4.97504E+03  3.00427E+02  1.00000E+00  2.05290E+03  4.02429E+03  4.05000E+03  6.42857E-01   14   14    1   3     6     11  0.00000E+00
  1    9    8    1  3.28747E+03  4.96015E+03  2.99872E+02  1.00000E+00  1.13514E+03  4.02429E+03  4.05000E+03  7.85714E-01   14   14    1   3     6     11  0.00000E+00
  1   11    9    1  3.71956E+03  4.61982E+03  2.90816E+02  1.00000E+00  3.38240E+02  4.02429E+03  4.05000E+03  9.28571E-01   14   14    1   3     6     61  0.00000E+00
  1    6    8    1  2.22124E+03  5.13879E+03  3.01456E+02  1.00000E+00  6.51070E+03  4.03000E+03  4.05000E+03  7.14286E-02   14   14    1   3     6     11  0.00000E+00
  1    7    8    1  2.46492E+03  5.12349E+03  3.00981E+02  1.00000E+00  5.24703E+03  4.03000E+03  4.05000E+03  2.14286E-01   14   14    1   3     6     11  0.00000E+00
  1    7    8    1  2.71081E+03  5.10756E+03  3.00981E+02  1.00000E+00  4.09409E+03  4.03000E+03  4.05000E+03  3.57143E-01   14   14    1   3     6     11  0.00000E+00
  1    8    8    1  2.95884E+03  5.09119E+03  3.00427E+02  1.00000E+00  3.03343E+03  4.03000E+03  4.05000E+03  5.00000E-01   14   14    1   3     6     11  0.00000E+00
  1    9    8    1  3.20895E+03  5.07503E+03  2.99872E+02  1.00000E+00  2.04866E+03  4.03000E+03  4.05000E+03  6.42857E-01   14   14    1   3     6     11  0.00000E+00
  1    9    8    1  3.46101E+03  5.05803E+03  2.99872E+02  1.00000E+00  1.13271E+03  4.03000E+03  4.05000E+03  7.85714E-01   14   14    1   3     6     11  0.00000E+00
  1   11    9    1  3.84294E+03  4.66718E+03  2.90816E+02  1.00000E+00  3.37960E+02  4.03000E+03  4.05000E+03  9.28571E-01   14   14    1   3     6     61  0.00000E+00
  1    6    8    1  2.34494E+03  5.20431E+03  3.01456E+02  1.00000E+00  6.50934E+03  4.03571E+03  4.05000E+03  7.14286E-02   14   14    1   3     6     11  0.00000E+00
  1    7    8    1  2.60232E+03  5.18679E+03  3.00981E+02  1.00000E+00  5.24695E+03  4.03571E+03  4.05000E+03  2.14286E-01   14   14    1   3     6     11  0.00000E+00