@ [ MODPATH Version 3.00 (V3, Release 2, 6-2000)(COMPACT)(TREF=   0.193450E+06 ) ]
  2   2552  4.04141E+03  4.05000E+03  6.16539E-03  1.30637E+05  1.00000E+02  7.76000E+03  9.99900E-01      1   1    10    101  0.00000E+00
  2   2552  4.04869E+03  4.04060E+03  0.00000E+00  1.66190E+05  1.00000E+02  7.96000E+03  9.99900E-01      1   1    10    101  0.00000E+00
  2   2552  4.04447E+03  4.05000E+03  3.68948E-02  1.03546E+05  3.00000E+02  7.76000E+03  9.99900E-01      1   1    10    101  0.00000E+00
  2   2552  4.05000E+03  4.04013E+03  9.23836E-03  1.51213E+05  3.00000E+02  7.96000E+03  9.99900E-01      1   1    10    101  0.00000E+00
  2   2552  4.04654E+03  4.05000E+03  6.48589E-02  9.15939E+04  5.00000E+02  7.76000E+03  9.99900E-01      2   1    10    101  0.00000E+00
  2   2552  4.05000E+03  4.03748E+03  1.77050E-02  1.51452E+05  5.00000E+02  7.96000E+03  9.99900E-01      2   1    10    101  0.00000E+00
  2   2552  4.04864E+03  4.05000E+03  9.68386E-02  8.38488E+04  7.00000E+02  7.76000E+03  9.99900E-01      2   1    10    101  0.00000E+00
  2   2552  4.05000E+03  4.03468E+03  2.38750E-02  1.58526E+05  7.00000E+02  7.96000E+03  9.99900E-01      2   1    10    101  0.00000E+00
  2   2552  4.04991E+03  4.05000E+03  1.26357E-01  7.93805E+04  9.00000E+02  7.76000E+03  9.99900E-01      3   1    10    101  0.00000E+00
  2   2552  4.05000E+03  4.03222E+03  3.13258E-02  1.83888E+05  9.00000E+02  7.96000E+03  9.99900E-01      3   1    10    101  0.00000E+00
  2   2552  4.05000E+03  4.04847E+03  1.45435E-01  7.55585E+04  1.10000E+03  7.76000E+03  9.99900E-01      3   1    10    101  0.00000E+00
  2   2552  4.05000E+03  4.03053E+03  4.76945E-02  2.54584E+05  1.10000E+03  7.96000E+03  9.99900E-01      3   1    10    101  0.00000E+00
  2   2552  4.05000E+03  4.04683E+03  1.60674E-01  7.25908E+04  1.30000E+03  7.76000E+03  9.99900E-01      4   1    10    101  0.00000E+00
  1    324  8.04796E+03  4.15140E+03  1.00000E+00  3.13229E+05  1.30000E+03  7.96000E+03  9.99900E-01      4   1    10    101  0.00000E+00
  2   2552  4.05000E+03  4.04557E+03  1.73141E-01  7.31516E+04  1.50000E+03  7.76000E+03  9.99900E-01      4   1    10    101  0.00000E+00
  1    270  8.05123E+03  4.40037E+03  1.00000E+00  2.57411E+05  1.50000E+03  7.96000E+03  9.99900E-01      4   1    10    101  0.00000E+00
  2   2552  4.05000E+03  4.04394E+03  1.85833E-01  7.26833E+04  1.70000E+03  7.76000E+03  9.99900E-01      5   1    10    101  0.00000E+00
  1    243  8.05285E+03  4.71388E+03  1.00000E+00  2.24825E+05  1.70000E+03  7.96000E+03  9.99900E-01      5   1    10    101  0.00000E+00
  2   2552  4.05000E+03  4.04194E+03  1.96925E-01  7.49443E+04  1.90000E+03  7.76000E+03  9.99900E-01      5   1    10    101  0.00000E+00
  1    216  8.05380E+03  5.07524E+03  1.00000E+00  2.00831E+05  1.90000E+03  7.96000E+03  9.99900E-01      5   1    10    101  0.00000E+00
  2   2552  4.05000E+03  4.03968E+03  1.98912E-01  7.93071E+04  2.10000E+03  7.76000E+03  9.99900E-01      6   1    10    101  0.00000E+00
  1    189  8.05433E+03  5.50810E+03  1.00000E+00  1.79257E+05  2.10000E+03  7.96000E+03  9.99900E-01      6   1    10    101  0.00000E+00
  2   2552  4.05000E+03  4.03724E+03  1.98317E-01  8.74561E+04  2.30000E+03  7.76000E+03  9.99900E-01      6   1    10    101  0.00000E+00
  1    162  8.05421E+03  5.92262E+03  1.00000E+00  1.61572E+05  2.30000E+03  7.96000E+03  9.99900E-01      6   1    10    101  0.00000E+00
  2   2552  4.05000E+03  4.03461E+03  1.83870E-01  1.01150E+05  2.50000E+03  7.76000E+03  9.99900E-01      7   1    10    101  0.00000E+00
  1    135  8.05358E+03  6.29507E+03  1.00000E+00  1.46452E+05  2.50000E+03  7.96000E+03  9.99900E-01      7   1    10    101  0.00000E+00
  2   2552  4.05000E+03  4.03127E+03  1.89890E-01  1.60654E+05  2.70000E+03  7.76000E+03  9.99900E-01      7   1    10    101  0.00000E+00
  1    108  8.05251E+03  6.64539E+03  1.00000E+00  1.31668E+05  2.70000E+03  7.96000E+03  9.99900E-01      7   1    10    101  0.00000E+00
  1    243  8.04293E+03  4.62614E+03  1.00000E+00  1.60289E+05  2.90000E+03  7.76000E+03  9.99900E-01      8   1    10    101  0.00000E+00
  1     81  8.05098E+03  6.95857E+03  1.00000E+00  1.16871E+05  2.90000E+03  7.96000E+03  9.99900E-01      8   1    10    101  0.00000E+00
  1    189  8.04545E+03  5.52220E+03  1.00000E+00  1.15172E+05  3.10000E+03  7.76000E+03  9.99900E-01      8   1    10    101  0.00000E+00
  1     81  8.04874E+03  7.23652E+03  1.00000E+00  1.00632E+05  3.10000E+03  7.96000E+03  9.99900E-01      8   1    10    101  0.00000E+00
  1    162  8.04431E+03  6.01494E+03  1.00000E+00  9.85223E+04  3.27500E+03  7.76000E+03  9.99900E-01      9   1    10    101  0.00000E+00
  1     54  8.04597E+03  7.40240E+03  1.00000E+00  8.94290E+04  3.27500E+03  7.96000E+03  9.99900E-01      9   1    10    101  0.00000E+00
  1    135  8.04222E+03  6.39679E+03  1.00000E+00  8.51496E+04  3.42500E+03  7.76000E+03  9.99900E-01      9   1    10    101  0.00000E+00
  1     54  8.04302E+03  7.52450E+03  1.00000E+00  7.90768E+04  3.42500E+03  7.96000E+03  9.99900E-01      9   1    10    101  0.00000E+00
  1    108  8.03978E+03  6.72694E+03  1.00000E+00  7.47937E+04  3.55000E+03  7.76000E+03  9.99900E-01     10   1    10    101  0.00000E+00
  1     54  8.04009E+03  7.63340E+03  1.00000E+00  7.00566E+04  3.55000E+03  7.96000E+03  9.99900E-01     10   1    10    101  0.00000E+00
  1     81  8.03716E+03  6.93008E+03  1.00000E+00  6.50900E+04  3.65000E+03  7.76000E+03  9.99900E-01     10   1    10    101  0.00000E+00
  1     27  8.03719E+03  7.69122E+03  1.00000E+00  6.24642E+04  3.65000E+03  7.96000E+03  9.99900E-01     10   1    10    101  0.00000E+00
  1     81  8.03422E+03  7.07571E+03  1.00000E+00  5.85420E+04  3.73750E+03  7.76000E+03  9.99900E-01     11   1    10    101  0.00000E+00
  1     27  8.03420E+03  7.73861E+03  1.00000E+00  5.63785E+04  3.73750E+03  7.96000E+03  9.99900E-01     11   1    10    101  0.00000E+00
  1     81  8.03148E+03  7.18959E+03  1.00000E+00  5.15157E+04  3.81250E+03  7.76000E+03  9.99900E-01     11   1    10    101  0.00000E+00
  1     27  8.03129E+03  7.77586E+03  1.00000E+00  5.33107E+04  3.81250E+03  7.96000E+03  9.99900E-01     11   1    10    101  0.00000E+00
  1     54  8.02895E+03  7.29556E+03  1.00000E+00  5.75167E+04  3.87500E+03  7.76000E+03  9.99900E-01     12   1    10    101  0.00000E+00
  1     27  8.02853E+03  7.81300E+03  1.00000E+00  5.50171E+04  3.87500E+03  7.96000E+03  9.99900E-01     12   1    10    101  0.00000E+00
  1     54  8.02644E+03  7.42128E+03  1.00000E+00  7.15927E+04  3.92500E+03  7.76000E+03  9.99900E-01     12   1    10    101  0.00000E+00
  1     27  8.02593E+03  7.85913E+03  1.00000E+00  6.72078E+04  3.92500E+03  7.96000E+03  9.99900E-01     12   1    10    101  0.00000E+00
  1     54  8.02404E+03  7.48758E+03  1.00000E+00  1.18160E+04  3.96500E+03  7.76000E+03  9.99900E-01     13   1    10    101  0.00000E+00
  1     27  8.02348E+03  7.86988E+03  1.00000E+00  1.17331E+04  3.96500E+03  7.96000E+03  9.99900E-01     13   1    10    101  0.00000E+00
  1     54  8.02218E+03  7.49432E+03  1.00000E+00  1.16515E+04  3.99500E+03  7.76000E+03  9.99900E-01     13   1    10    101  0.00000E+00
  1     27  8.02162E+03  7.87209E+03  1.00000E+00  1.15706E+04  3.99500E+03  7.96000E+03  9.99900E-01     13   1    10    101  0.00000E+00
  1     54  8.02061E+03  7.49985E+03  1.00000E+00  1.15156E+04  4.02000E+03  7.76000E+03  9.99900E-01     14   1    10    101  0.00000E+00
  1     27  8.02005E+03  7.87390E+03  1.00000E+00  1.14365E+04  4.02000E+03  7.96000E+03  9.99900E-01     14   1    10    101  0.00000E+00
  1     54  8.01934E+03  7.50422E+03  1.00000E+00  1.14076E+04  4.04000E+03  7.76000E+03  9.99900E-01     14   1    10    101  0.00000E+00
  1     27  8.01878E+03  7.87533E+03  1.00000E+00  1.13301E+04  4.04000E+03  7.96000E+03  9.99900E-01     14   1    10    101  0.00000E+00
  1     54  8.01774E+03  7.50960E+03  1.00000E+00  1.12737E+04  4.06500E+03  7.76000E+03  9.99900E-01     15   1    10    101  0.00000E+00
  1     27  8.01718E+03  7.87710E+03  1.00000E+00  1.11980E+04  4.06500E+03  7.96000E+03  9.99900E-01     15   1    10    101  0.00000E+00
  1     54  8.01580E+03  7.51594E+03  1.00000E+00  1.11144E+04  4.09500E+03  7.76000E+03  9.99900E-01     15   1    10    101  0.00000E+00
  1     27  8.01524E+03  7.87918E+03  1.00000E+00  1.10410E+04  4.09500E+03  7.96000E+03  9.99900E-01     15   1    10    101  0.00000E+00
  1     54  8.01318E+03  7.52422E+03  1.00000E+00  1.09044E+04  4.13500E+03  7.76000E+03  9.99900E-01     16   1    10    101  0.00000E+00
  1     27  8.01262E+03  7.88189E+03  1.00000E+00  1.08341E+04  4.13500E+03  7.96000E+03  9.99900E-01     16   1    10    101  0.00000E+00
  1     54  8.00984E+03  7.53430E+03  1.00000E+00  1.06455E+04  4.18500E+03  7.76000E+03  9.99900E-01     16   1    10    101  0.00000E+00
  1     27  8.00929E+03  7.88520E+03  1.00000E+00  1.05789E+04  4.18500E+03  7.96000E+03  9.99900E-01     16   1    10    101  0.00000E+00
  1     54  8.00557E+03  7.54643E+03  1.00000E+00  1.03272E+04  4.24750E+03  7.76000E+03  9.99900E-01     17   1    10    101  0.00000E+00
  1     27  8.00504E+03  7.88918E+03  1.00000E+00  1.02654E+04  4.24750E+03  7.96000E+03  9.99900E-01     17   1    10    101  0.00000E+00
  1     54  8.00032E+03  7.56037E+03  1.00000E+00  9.95242E+03  4.32250E+03  7.76000E+03  9.99900E-01     17   1    10    101  0.00000E+00
  1     27  7.99981E+03  7.89377E+03  1.00000E+00  9.89669E+03  4.32250E+03  7.96000E+03  9.99900E-01     17   1    10    101  0.00000E+00
  1     54  7.99399E+03  7.57573E+03  1.00000E+00  9.52492E+03  4.41000E+03  7.76000E+03  9.99900E-01     18   1    10    101  0.00000E+00
  1     27  7.99352E+03  7.89882E+03  1.00000E+00  9.47646E+03  4.41000E+03  7.96000E+03  9.99900E-01     18   1    10    101  0.00000E+00
  1     54  7.98651E+03  7.59222E+03  1.00000E+00  9.04928E+03  4.51000E+03  7.76000E+03  9.99900E-01     18   1    10    101  0.00000E+00
  1     27  7.98611E+03  7.90425E+03  1.00000E+00  9.00865E+03  4.51000E+03  7.96000E+03  9.99900E-01     18   1    10    101  0.00000E+00
  1     54  7.97679E+03  7.61108E+03  1.00000E+00  8.47258E+03  4.63500E+03  7.76000E+03  9.99900E-01     19   1    10    101  0.00000E+00
  1     27  7.97648E+03  7.91048E+03  1.00000E+00  8.44225E+03  4.63500E+03  7.96000E+03  9.99900E-01     19   1    10    101  0.00000E+00
  1     54  7.96459E+03  7.63166E+03  1.00000E+00  7.80704E+03  4.78500E+03  7.76000E+03  9.99900E-01     19   1    10    101  0.00000E+00
  1     27  7.96441E+03  7.91727E+03  1.00000E+00  7.78828E+03  4.78500E+03  7.96000E+03  9.99900E-01     19   1    10    101  0.00000E+00
  1     54  7.94964E+03  7.65251E+03  1.00000E+00  7.06638E+03  4.96000E+03  7.76000E+03  9.99900E-01     20   1    10    101  0.00000E+00
  1     27  7.94962E+03  7.92418E+03  1.00000E+00  7.06010E+03  4.96000E+03  7.96000E+03  9.99900E-01     20   1    10    101  0.00000E+00
  1     27  7.93185E+03  7.67309E+03  1.00000E+00  6.27352E+03  5.16000E+03  7.76000E+03  9.99900E-01     20   1    10    101  0.00000E+00
  1     27  7.93185E+03  7.93103E+03  1.00000E+00  6.27352E+03  5.16000E+03  7.96000E+03  9.99900E-01     20   1    10    101  0.00000E+00
  1     27  7.91319E+03  7.69036E+03  1.00000E+00  5.53304E+03  5.36000E+03  7.76000E+03  9.99900E-01     21   1    10    101  0.00000E+00
  1     27  7.91319E+03  7.93679E+03  1.00000E+00  5.53304E+03  5.36000E+03  7.96000E+03  9.99900E-01     21   1    10    101  0.00000E+00
  1     27  7.89372E+03  7.70475E+03  1.00000E+00  4.84043E+03  5.56000E+03  7.76000E+03  9.99900E-01     21   1    10    101  0.00000E+00
  1     27  7.89372E+03  7.94158E+03  1.00000E+00  4.84043E+03  5.56000E+03  7.96000E+03  9.99900E-01     21   1    10    101  0.00000E+00
  1     27  7.87351E+03  7.71669E+03  1.00000E+00  4.19254E+03  5.76000E+03  7.76000E+03  9.99900E-01     22   1    10    101  0.00000E+00
  1     27  7.87351E+03  7.94556E+03  1.00000E+00  4.19254E+03  5.76000E+03  7.96000E+03  9.99900E-01     22   1    10    101  0.00000E+00
  1     27  7.85267E+03  7.72646E+03  1.00000E+00  3.59025E+03  5.96000E+03  7.76000E+03  9.99900E-01     22   1    10    101  0.00000E+00
  1     27  7.85267E+03  7.94882E+03  1.00000E+00  3.59025E+03  5.96000E+03  7.96000E+03  9.99900E-01     22   1    10    101  0.00000E+00
  1     27  7.83125E+03  7.73447E+03  1.00000E+00  3.03009E+03  6.16000E+03  7.76000E+03  9.99900E-01     23   1    10    101  0.00000E+00
  1     27  7.83125E+03  7.95149E+03  1.00000E+00  3.03009E+03  6.16000E+03  7.96000E+03  9.99900E-01     23   1    10    101  0.00000E+00
  1     27  7.80937E+03  7.74092E+03  1.00000E+00  2.51198E+03  6.36000E+03  7.76000E+03  9.99900E-01     23   1    10    101  0.00000E+00
  1     27  7.80937E+03  7.95364E+03  1.00000E+00  2.51198E+03  6.36000E+03  7.96000E+03  9.99900E-01     23   1    10    101  0.00000E+00
  1     27  7.78707E+03  7.74613E+03  1.00000E+00  2.03234E+03  6.56000E+03  7.76000E+03  9.99900E-01     24   1    10    101  0.00000E+00
  1     27  7.78707E+03  7.95538E+03  1.00000E+00  2.03234E+03  6.56000E+03  7.96000E+03  9.99900E-01     24   1    10    101  0.00000E+00
  1     27  7.76445E+03  7.75025E+03  1.00000E+00  1.59043E+03  6.76000E+03  7.76000E+03  9.99900E-01     24   1    10    101  0.00000E+00
  1     27  7.76445E+03  7.95675E+03  1.00000E+00  1.59043E+03  6.76000E+03  7.96000E+03  9.99900E-01     24   1    10    101  0.00000E+00
  1     27  7.74156E+03  7.75351E+03  1.00000E+00  1.18284E+03  6.96000E+03  7.76000E+03  9.99900E-01     25   1    10    101  0.00000E+00
  1     27  7.74156E+03  7.95784E+03  1.00000E+00  1.18284E+03  6.96000E+03  7.96000E+03  9.99900E-01     25   1    10    101  0.00000E+00
  1     27  7.71845E+03  7.75602E+03  1.00000E+00  8.08491E+02  7.16000E+03  7.76000E+03  9.99900E-01     25   1    10    101  0.00000E+00
  1     27  7.71845E+03  7.95867E+03  1.00000E+00  8.08491E+02  7.16000E+03  7.96000E+03  9.99900E-01     25   1    10    101  0.00000E+00
  1     27  7.69518E+03  7.75794E+03  1.00000E+00  4.64302E+02  7.36000E+03  7.76000E+03  9.99900E-01     26   1    10    101  0.00000E+00
  1     27  7.69518E+03  7.95931E+03  1.00000E+00  4.64302E+02  7.36000E+03  7.96000E+03  9.99900E-01     26   1    10    101  0.00000E+00
  1     27  7.67178E+03  7.75934E+03  1.00000E+00  1.49130E+02  7.56000E+03  7.76000E+03  9.99900E-01     26   1    10    101  0.00000E+00
  1     27  7.67178E+03  7.95978E+03  1.00000E+00  1.49130E+02  7.56000E+03  7.96000E+03  9.99900E-01     26   1    10    101  0.00000E+00
  2   2552  4.02318E+03  4.05000E+03  1.80719E-02  1.05889E+05  1.00000E+02  7.36000E+03  9.99900E-01     28   1    10    101  0.00000E+00
  2   2552  4.03114E+03  4.05000E+03  1.34735E-02  1.16043E+05  1.00000E+02  7.56000E+03  9.99900E-01     28   1    10    101  0.00000E+00
  2   2552  4.02901E+03  4.05000E+03  6.82406E-02  7.95030E+04  3.00000E+02  7.36000E+03  9.99900E-01     28   1    10    101  0.00000E+00
  2   2552  4.03611E+03  4.05000E+03  5.04964E-02  8.89469E+04  3.00000E+02  7.56000E+03  9.99900E-01     28   1    10    101  0.00000E+00
  2   2552  4.03158E+03  4.05000E+03  1.21426E-01  6.69354E+04  5.00000E+02  7.36000E+03  9.99900E-01     29   1    10    101  0.00000E+00
  2   2552  4.03799E+03  4.05000E+03  9.85040E-02  7.62969E+04  5.00000E+02  7.56000E+03  9.99900E-01     29   1    10    101  0.00000E+00
  2   2552  4.03327E+03  4.05000E+03  1.76210E-01  5.86638E+04  7.00000E+02  7.36000E+03  9.99900E-01     29   1    10    101  0.00000E+00
  2   2552  4.03977E+03  4.05000E+03  1.35992E-01  6.80548E+04  7.00000E+02  7.56000E+03  9.99900E-01     29   1    10    101  0.00000E+00
  2   2552  4.03459E+03  4.05000E+03  2.31554E-01  5.25327E+04  9.00000E+02  7.36000E+03  9.99900E-01     30   1    10    101  0.00000E+00
  2   2552  4.04107E+03  4.05000E+03  1.80111E-01  6.22131E+04  9.00000E+02  7.56000E+03  9.99900E-01     30   1    10    101  0.00000E+00
  2   2552  4.03551E+03  4.05000E+03  2.82472E-01  4.75029E+04  1.10000E+03  7.36000E+03  9.99900E-01     30   1    10    101  0.00000E+00
  2   2552  4.04234E+03  4.05000E+03  2.15306E-01  5.76755E+04  1.10000E+03  7.56000E+03  9.99900E-01     30   1    10    101  0.00000E+00
  2   2552  4.03725E+03  4.05000E+03  3.32244E-01  4.38485E+04  1.30000E+03  7.36000E+03  9.99900E-01     31   1    10    101  0.00000E+00
  2   2552  4.04370E+03  4.05000E+03  2.49989E-01  5.43471E+04  1.30000E+03  7.56000E+03  9.99900E-01     31   1    10    101  0.00000E+00
  2   2552  4.03901E+03  4.05000E+03  3.74137E-01  4.10489E+04  1.50000E+03  7.36000E+03  9.99900E-01     31   1    10    101  0.00000E+00
  2   2552  4.04480E+03  4.05000E+03  2.80176E-01  5.12986E+04  1.50000E+03  7.56000E+03  9.99900E-01     31   1    10    101  0.00000E+00
  2   2552  4.04087E+03  4.05000E+03  4.11645E-01  3.87387E+04  1.70000E+03  7.36000E+03  9.99900E-01     32   1    10    101  0.00000E+00
  2   2552  4.04665E+03  4.05000E+03  3.07700E-01  4.95974E+04  1.70000E+03  7.56000E+03  9.99900E-01     32   1    10    101  0.00000E+00
  2   2552  4.04292E+03  4.05000E+03  4.41819E-01  3.73595E+04  1.90000E+03  7.36000E+03  9.99900E-01     32   1    10    101  0.00000E+00
  2   2552  4.04861E+03  4.05000E+03  3.28809E-01  4.89864E+04  1.90000E+03  7.56000E+03  9.99900E-01     32   1    10    101  0.00000E+00
  2   2552  4.04511E+03  4.05000E+03  4.66508E-01  3.63127E+04  2.10000E+03  7.36000E+03  9.99900E-01     33   1    10    101  0.00000E+00
  2   2552  4.05000E+03  4.04926E+03  3.46301E-01  4.82756E+04  2.10000E+03  7.56000E+03  9.99900E-01     33   1    10    101  0.00000E+00
  2   2552  4.04749E+03  4.05000E+03  4.83666E-01  3.64272E+04  2.30000E+03  7.36000E+03  9.99900E-01     33   1    10    101  0.00000E+00
  2   2552  4.05000E+03  4.04692E+03  3.50799E-01  5.03271E+04  2.30000E+03  7.56000E+03  9.99900E-01     33   1    10    101  0.00000E+00
  2   2552  4.05000E+03  4.04995E+03  4.90797E-01  3.66981E+04  2.50000E+03  7.36000E+03  9.99900E-01     34   1    10    101  0.00000E+00
  2   2552  4.05000E+03  4.04443E+03  3.51031E-01  5.19273E+04  2.50000E+03  7.56000E+03  9.99900E-01     34   1    10    101  0.00000E+00
  2   2552  4.05000E+03  4.04719E+03  4.89651E-01  3.86874E+04  2.70000E+03  7.36000E+03  9.99900E-01     34   1    10    101  0.00000E+00
  2   2552  4.05000E+03  4.04164E+03  3.41901E-01  5.74819E+04  2.70000E+03  7.56000E+03  9.99900E-01     34   1    10    101  0.00000E+00
  2   2552  4.05000E+03  4.04427E+03  4.78949E-01  4.15237E+04  2.90000E+03  7.36000E+03  9.99900E-01     35   1    10    101  0.00000E+00
  2   2552  4.05000E+03  4.03844E+03  3.22032E-01  6.41929E+04  2.90000E+03  7.56000E+03  9.99900E-01     35   1    10    101  0.00000E+00
  2   2552  4.05000E+03  4.04104E+03  4.49164E-01  4.79776E+04  3.10000E+03  7.36000E+03  9.99900E-01     35   1    10    101  0.00000E+00
  2   2552  4.05000E+03  4.03457E+03  2.82599E-01  8.47609E+04  3.10000E+03  7.56000E+03  9.99900E-01     35   1    10    101  0.00000E+00
  2   2552  4.05000E+03  4.03778E+03  4.11479E-01  5.50278E+04  3.27500E+03  7.36000E+03  9.99900E-01     36   1    10    101  0.00000E+00
  1    297  8.03717E+03  4.30451E+03  1.00000E+00  1.66020E+05  3.27500E+03  7.56000E+03  9.99900E-01     36   1    10    101  0.00000E+00
  2   2552  4.05000E+03  4.03438E+03  3.57118E-01  7.42672E+04  3.42500E+03  7.36000E+03  9.99900E-01     36   1    10    101  0.00000E+00
  1    216  8.03882E+03  5.05603E+03  1.00000E+00  1.10461E+05  3.42500E+03  7.56000E+03  9.99900E-01     36   1    10    101  0.00000E+00
  2   2552  4.05000E+03  4.03016E+03  3.19811E-01  2.15541E+05  3.55000E+03  7.36000E+03  9.99900E-01     37   1    10    101  0.00000E+00
  1    162  8.03856E+03  5.66082E+03  1.00000E+00  8.70398E+04  3.55000E+03  7.56000E+03  9.99900E-01     37   1    10    101  0.00000E+00
  1    216  8.03478E+03  4.92468E+03  1.00000E+00  9.71090E+04  3.65000E+03  7.36000E+03  9.99900E-01     37   1    10    101  0.00000E+00
  1    135  8.03675E+03  6.10031E+03  1.00000E+00  7.09926E+04  3.65000E+03  7.56000E+03  9.99900E-01     37   1    10    101  0.00000E+00
  1    189  8.03369E+03  5.49373E+03  1.00000E+00  7.43537E+04  3.73750E+03  7.36000E+03  9.99900E-01     38   1    10    101  0.00000E+00
  1    135  8.03410E+03  6.35638E+03  1.00000E+00  6.30450E+04  3.73750E+03  7.56000E+03  9.99900E-01     38   1    10    101  0.00000E+00
  1    162  8.03187E+03  5.80625E+03  1.00000E+00  6.34007E+04  3.81250E+03  7.36000E+03  9.99900E-01     38   1    10    101  0.00000E+00
  1    108  8.03171E+03  6.55657E+03  1.00000E+00  5.50924E+04  3.81250E+03  7.56000E+03  9.99900E-01     38   1    10    101  0.00000E+00
  1    162  8.03002E+03  6.05901E+03  1.00000E+00  5.80066E+04  3.87500E+03  7.36000E+03  9.99900E-01     39   1    10    101  0.00000E+00
  1    108  8.02916E+03  6.72882E+03  1.00000E+00  5.08738E+04  3.87500E+03  7.56000E+03  9.99900E-01     39   1    10    101  0.00000E+00
  1    135  8.02781E+03  6.30013E+03  1.00000E+00  5.87517E+04  3.92500E+03  7.36000E+03  9.99900E-01     39   1    10    101  0.00000E+00
  1     81  8.02700E+03  6.91471E+03  1.00000E+00  5.07992E+04  3.92500E+03  7.56000E+03  9.99900E-01     39   1    10    101  0.00000E+00
  1    108  8.02613E+03  6.55674E+03  1.00000E+00  7.31730E+04  3.96500E+03  7.36000E+03  9.99900E-01     40   1    10    101  0.00000E+00
  1     81  8.02469E+03  7.09647E+03  1.00000E+00  1.19367E+04  3.96500E+03  7.56000E+03  9.99900E-01     40   1    10    101  0.00000E+00
  1    108  8.02433E+03  6.70693E+03  1.00000E+00  1.19980E+04  3.99500E+03  7.36000E+03  9.99900E-01     40   1    10    101  0.00000E+00
  1     81  8.02283E+03  7.10815E+03  1.00000E+00  1.17682E+04  3.99500E+03  7.56000E+03  9.99900E-01     40   1    10    101  0.00000E+00
  1    108  8.02278E+03  6.72114E+03  1.00000E+00  1.18531E+04  4.02000E+03  7.36000E+03  9.99900E-01     41   1    10    101  0.00000E+00
  1     81  8.02127E+03  7.11771E+03  1.00000E+00  1.16292E+04  4.02000E+03  7.56000E+03  9.99900E-01     41   1    10    101  0.00000E+00
  1    108  8.02153E+03  6.73235E+03  1.00000E+00  1.17383E+04  4.04000E+03  7.36000E+03  9.99900E-01     41   1    10    101  0.00000E+00
  1     81  8.02000E+03  7.12526E+03  1.00000E+00  1.15186E+04  4.04000E+03  7.56000E+03  9.99900E-01     41   1    10    101  0.00000E+00
  1    108  8.01995E+03  6.74616E+03  1.00000E+00  1.15946E+04  4.06500E+03  7.36000E+03  9.99900E-01     42   1    10    101  0.00000E+00
  1     81  8.01840E+03  7.13457E+03  1.00000E+00  1.13808E+04  4.06500E+03  7.56000E+03  9.99900E-01     42   1    10    101  0.00000E+00
  1    108  8.01803E+03  6.76242E+03  1.00000E+00  1.14237E+04  4.09500E+03  7.36000E+03  9.99900E-01     42   1    10    101  0.00000E+00
  1     81  8.01646E+03  7.14554E+03  1.00000E+00  1.12171E+04  4.09500E+03  7.56000E+03  9.99900E-01     42   1    10    101  0.00000E+00
  1    108  8.01544E+03  6.78357E+03  1.00000E+00  1.11995E+04  4.13500E+03  7.36000E+03  9.99900E-01     43   1    10    101  0.00000E+00
  1     81  8.01384E+03  7.15984E+03  1.00000E+00  1.10015E+04  4.13500E+03  7.56000E+03  9.99900E-01     43   1    10    101  0.00000E+00
  1    108  8.01215E+03  6.80923E+03  1.00000E+00  1.09218E+04  4.18500E+03  7.36000E+03  9.99900E-01     43   1    10    101  0.00000E+00
  1     81  8.01050E+03  7.17721E+03  1.00000E+00  1.07362E+04  4.18500E+03  7.56000E+03  9.99900E-01     43   1    10    101  0.00000E+00
  1    108  8.00797E+03  6.83998E+03  1.00000E+00  1.05810E+04  4.24750E+03  7.36000E+03  9.99900E-01     44   1    10    101  0.00000E+00
  1     81  8.00623E+03  7.19810E+03  1.00000E+00  1.04085E+04  4.24750E+03  7.56000E+03  9.99900E-01     44   1    10    101  0.00000E+00
  1     81  8.00296E+03  6.87500E+03  1.00000E+00  1.01823E+04  4.32250E+03  7.36000E+03  9.99900E-01     44   1    10    101  0.00000E+00
  1     81  8.00098E+03  7.22206E+03  1.00000E+00  1.00236E+04  4.32250E+03  7.56000E+03  9.99900E-01     44   1    10    101  0.00000E+00
  1     81  7.99677E+03  6.91329E+03  1.00000E+00  9.74813E+03  4.41000E+03  7.36000E+03  9.99900E-01     45   1    10    101  0.00000E+00
  1     81  7.99469E+03  7.24837E+03  1.00000E+00  9.58464E+03  4.41000E+03  7.56000E+03  9.99900E-01     45   1    10    101  0.00000E+00
  1     81  7.98940E+03  6.95435E+03  1.00000E+00  9.26254E+03  4.51000E+03  7.36000E+03  9.99900E-01     45   1    10    101  0.00000E+00
  1     54  7.98739E+03  7.27644E+03  1.00000E+00  9.10205E+03  4.51000E+03  7.56000E+03  9.99900E-01     45   1    10    101  0.00000E+00
  1     81  7.97978E+03  7.00116E+03  1.00000E+00  8.67289E+03  4.63500E+03  7.36000E+03  9.99900E-01     46   1    10    101  0.00000E+00
  1     54  7.97781E+03  7.30844E+03  1.00000E+00  8.53042E+03  4.63500E+03  7.56000E+03  9.99900E-01     46   1    10    101  0.00000E+00
  1     81  7.96764E+03  7.05207E+03  1.00000E+00  7.99033E+03  4.78500E+03  7.36000E+03  9.99900E-01     46   1    10    101  0.00000E+00
  1     54  7.96579E+03  7.34336E+03  1.00000E+00  7.86949E+03  4.78500E+03  7.56000E+03  9.99900E-01     46   1    10    101  0.00000E+00
  1     81  7.95264E+03  7.10340E+03  1.00000E+00  7.22751E+03  4.96000E+03  7.36000E+03  9.99900E-01     47   1    10    101  0.00000E+00
  1     54  7.95101E+03  7.37875E+03  1.00000E+00  7.13255E+03  4.96000E+03  7.56000E+03  9.99900E-01     47   1    10    101  0.00000E+00
  1     81  7.93450E+03  7.15388E+03  1.00000E+00  6.40304E+03  5.16000E+03  7.36000E+03  9.99900E-01     47   1    10    101  0.00000E+00
  1     54  7.93322E+03  7.41375E+03  1.00000E+00  6.33586E+03  5.16000E+03  7.56000E+03  9.99900E-01     47   1    10    101  0.00000E+00
  1     81  7.91536E+03  7.19593E+03  1.00000E+00  5.62793E+03  5.36000E+03  7.36000E+03  9.99900E-01     48   1    10    101  0.00000E+00
  1     54  7.91449E+03  7.44308E+03  1.00000E+00  5.58543E+03  5.36000E+03  7.56000E+03  9.99900E-01     48   1    10    101  0.00000E+00
  1     81  7.89536E+03  7.23062E+03  1.00000E+00  4.90496E+03  5.56000E+03  7.36000E+03  9.99900E-01     48   1    10    101  0.00000E+00
  1     54  7.89494E+03  7.46744E+03  1.00000E+00  4.88369E+03  5.56000E+03  7.56000E+03  9.99900E-01     48   1    10    101  0.00000E+00
  1     81  7.87458E+03  7.25914E+03  1.00000E+00  4.22858E+03  5.76000E+03  7.36000E+03  9.99900E-01     49   1    10    101  0.00000E+00
  1     54  7.87461E+03  7.48759E+03  1.00000E+00  4.22754E+03  5.76000E+03  7.56000E+03  9.99900E-01     49   1    10    101  0.00000E+00
  1     54  7.85364E+03  7.28213E+03  1.00000E+00  3.61812E+03  5.96000E+03  7.36000E+03  9.99900E-01     49   1    10    101  0.00000E+00
  1     54  7.85364E+03  7.50402E+03  1.00000E+00  3.61812E+03  5.96000E+03  7.56000E+03  9.99900E-01     49   1    10    101  0.00000E+00
  1     54  7.83209E+03  7.30090E+03  1.00000E+00  3.05186E+03  6.16000E+03  7.36000E+03  9.99900E-01     50   1    10    101  0.00000E+00
  1     54  7.83209E+03  7.51746E+03  1.00000E+00  3.05186E+03  6.16000E+03  7.56000E+03  9.99900E-01     50   1    10    101  0.00000E+00
  1     54  7.81008E+03  7.31592E+03  1.00000E+00  2.52869E+03  6.36000E+03  7.36000E+03  9.99900E-01     50   1    10    101  0.00000E+00
  1     54  7.81008E+03  7.52824E+03  1.00000E+00  2.52869E+03  6.36000E+03  7.56000E+03  9.99900E-01     50   1    10    101  0.00000E+00
  1     54  7.78766E+03  7.32803E+03  1.00000E+00  2.04485E+03  6.56000E+03  7.36000E+03  9.99900E-01     51   1    10    101  0.00000E+00
  1     54  7.78766E+03  7.53695E+03  1.00000E+00  2.04485E+03  6.56000E+03  7.56000E+03  9.99900E-01     51   1    10    101  0.00000E+00
  1     54  7.76492E+03  7.33756E+03  1.00000E+00  1.59953E+03  6.76000E+03  7.36000E+03  9.99900E-01     51   1    10    101  0.00000E+00
  1     54  7.76492E+03  7.54380E+03  1.00000E+00  1.59953E+03  6.76000E+03  7.56000E+03  9.99900E-01     51   1    10    101  0.00000E+00
  1     54  7.74191E+03  7.34510E+03  1.00000E+00  1.18915E+03  6.96000E+03  7.36000E+03  9.99900E-01     52   1    10    101  0.00000E+00
  1     54  7.74191E+03  7.54924E+03  1.00000E+00  1.18915E+03  6.96000E+03  7.56000E+03  9.99900E-01     52   1    10    101  0.00000E+00
  1     54  7.71870E+03  7.35087E+03  1.00000E+00  8.12541E+02  7.16000E+03  7.36000E+03  9.99900E-01     52   1    10    101  0.00000E+00
  1     54  7.71870E+03  7.55341E+03  1.00000E+00  8.12541E+02  7.16000E+03  7.56000E+03  9.99900E-01     52   1    10    101  0.00000E+00
  1     54  7.69532E+03  7.35529E+03  1.00000E+00  4.66499E+02  7.36000E+03  7.36000E+03  9.99900E-01     53   1    10    101  0.00000E+00
  1     54  7.69532E+03  7.55660E+03  1.00000E+00  4.66499E+02  7.36000E+03  7.56000E+03  9.99900E-01     53   1    10    101  0.00000E+00
  1     54  7.67182E+03  7.35849E+03  1.00000E+00  1.49797E+02  7.56000E+03  7.36000E+03  9.99900E-01     53   1    10    101  0.00000E+00
  1     54  7.67182E+03  7.55891E+03  1.00000E+00  1.49797E+02  7.56000E+03  7.56000E+03  9.99900E-01     53   1    10    101  0.00000E+00
  2   2552  4.01565E+03  4.05000E+03  3.74871E-02  9.15019E+04  1.00000E+02  6.96000E+03  9.99900E-01     55   1    10    101  0.00000E+00
  2   2552  4.01825E+03  4.05000E+03  2.39640E-02  9.80027E+04  1.00000E+02  7.16000E+03  9.99900E-01     55   1    10    101  0.00000E+00
  2   2552  4.02041E+03  4.05000E+03  1.16690E-01  6.64983E+04  3.00000E+02  6.96000E+03  9.99900E-01     55   1    10    101  0.00000E+00
  2   2552  4.02416E+03  4.05000E+03  9.32295E-02  7.23402E+04  3.00000E+02  7.16000E+03  9.99900E-01     55   1    10    101  0.00000E+00
  2   2552  4.02283E+03  4.05000E+03  1.95963E-01  5.44747E+04  5.00000E+02  6.96000E+03  9.99900E-01     56   1    10    101  0.00000E+00
  2   2552  4.02655E+03  4.05000E+03  1.55466E-01  6.00508E+04  5.00000E+02  7.16000E+03  9.99900E-01     56   1    10    101  0.00000E+00
  2   2552  4.02402E+03  4.05000E+03  2.75686E-01  4.61521E+04  7.00000E+02  6.96000E+03  9.99900E-01     56   1    10    101  0.00000E+00