@ [ MODPATH 5.0 (TREF=   0.183595E+06 ) ]
  1    5   19    1  1.85659E+03  3.46970E+03  3.01838E+02  1.00000E+00  6.47018E+03  4.01000E+03  4.01286E+03  7.14286E-02   14   14    1   3     6     11  0.00000E+00
  1    6   19    1  2.05911E+03  3.47705E+03  3.01439E+02  1.00000E+00  5.22343E+03  4.01000E+03  4.01286E+03  2.14286E-01   14   14    1   3     6     11  0.00000E+00
  1    6   19    1  2.26396E+03  3.48476E+03  3.01439E+02  1.00000E+00  4.08347E+03  4.01000E+03  4.01286E+03  3.57143E-01   14   14    1   3     6     11  0.00000E+00
  1    7   19    1  2.47111E+03  3.49238E+03  3.00960E+02  1.00000E+00  3.03140E+03  4.01000E+03  4.01286E+03  5.00000E-01   14   14    1   3     6     11  0.00000E+00
  1    7   18    1  2.68077E+03  3.50046E+03  3.00947E+02  1.00000E+00  2.05429E+03  4.01000E+03  4.01286E+03  6.42857E-01   14   14    1   3     6     11  0.00000E+00
  1    8   18    1  2.89421E+03  3.50871E+03  3.00384E+02  1.00000E+00  1.13985E+03  4.01000E+03  4.01286E+03  7.85714E-01   14   14    1   3     6     11  0.00000E+00
  1    9   18    1  3.43523E+03  3.69080E+03  2.91801E+02  1.00000E+00  3.39839E+02  4.01000E+03  4.01286E+03  9.28571E-01   14   14    1   3     6     61  0.00000E+00
  1    5   18    1  1.80558E+03  3.64381E+03  3.01830E+02  1.00000E+00  6.46917E+03  4.01000E+03  4.01857E+03  7.14286E-02   14   14    1   3     6     11  0.00000E+00
  1    6   18    1  2.00300E+03  3.64868E+03  3.01429E+02  1.00000E+00  5.22421E+03  4.01000E+03  4.01857E+03  2.14286E-01   14   14    1   3     6     11  0.00000E+00
  1    6   18    1  2.20295E+03  3.65413E+03  3.01429E+02  1.00000E+00  4.08675E+03  4.01000E+03  4.01857E+03  3.57143E-01   14   14    1   3     6     11  0.00000E+00
  1    7   18    1  2.40549E+03  3.65915E+03  3.00947E+02  1.00000E+00  3.03382E+03  4.01000E+03  4.01857E+03  5.00000E-01   14   14    1   3     6     11  0.00000E+00
  1    7   18    1  2.61076E+03  3.66488E+03  3.00947E+02  1.00000E+00  2.05707E+03  4.01000E+03  4.01857E+03  6.42857E-01   14   14    1   3     6     11  0.00000E+00
  1    8   18    1  2.81888E+03  3.67030E+03  3.00384E+02  1.00000E+00  1.14033E+03  4.01000E+03  4.01857E+03  7.85714E-01   14   14    1   3     6     11  0.00000E+00
  1    9   17    1  3.38106E+03  3.79919E+03  2.91452E+02  1.00000E+00  3.40746E+02  4.01000E+03  4.01857E+03  9.28571E-01   14   14    1   3     6     61  0.00000E+00
  1    5   17    1  1.77076E+03  3.83304E+03  3.01827E+02  1.00000E+00  6.46413E+03  4.01000E+03  4.02429E+03  7.14286E-02   14   14    1   3     6     11  0.00000E+00
  1    5   17    1  1.96440E+03  3.83555E+03  3.01827E+02  1.00000E+00  5.22173E+03  4.01000E+03  4.02429E+03  2.14286E-01   14   14    1   3     6     11  0.00000E+00
  1    6   17    1  2.16058E+03  3.83828E+03  3.01425E+02  1.00000E+00  4.08565E+03  4.01000E+03  4.02429E+03  3.57143E-01   14   14    1   3     6     11  0.00000E+00
  1    6   17    1  2.35946E+03  3.84086E+03  3.01425E+02  1.00000E+00  3.03414E+03  4.01000E+03  4.02429E+03  5.00000E-01   14   14    1   3     6     11  0.00000E+00
  1    7   17    1  2.56109E+03  3.84373E+03  3.00942E+02  1.00000E+00  2.05779E+03  4.01000E+03  4.02429E+03  6.42857E-01   14   14    1   3     6     11  0.00000E+00
  1    7   17    1  2.76574E+03  3.84651E+03  3.00942E+02  1.00000E+00  1.14125E+03  4.01000E+03  4.02429E+03  7.85714E-01   14   14    1   3     6     11  0.00000E+00
  1    9   16    1  3.33619E+03  3.91223E+03  2.91291E+02  1.00000E+00  3.41179E+02  4.01000E+03  4.02429E+03  9.28571E-01   14   14    1   3     6     61  0.00000E+00
  1    5   14    1  1.75994E+03  4.02998E+03  3.01825E+02  1.00000E+00  6.45570E+03  4.01000E+03  4.03000E+03  7.14286E-02   14   14    1   3     6     11  0.00000E+00
  1    5   14    1  1.95216E+03  4.02998E+03  3.01825E+02  1.00000E+00  5.21625E+03  4.01000E+03  4.03000E+03  2.14286E-01   14   14    1   3     6     11  0.00000E+00
  1    6   14    1  2.14693E+03  4.02997E+03  3.01423E+02  1.00000E+00  4.08225E+03  4.01000E+03  4.03000E+03  3.57143E-01   14   14    1   3     6     11  0.00000E+00
  1    6   14    1  2.34446E+03  4.02997E+03  3.01423E+02  1.00000E+00  3.03257E+03  4.01000E+03  4.03000E+03  5.00000E-01   14   14    1   3     6     11  0.00000E+00
  1    7   14    1  2.54480E+03  4.02998E+03  3.00939E+02  1.00000E+00  2.05731E+03  4.01000E+03  4.03000E+03  6.42857E-01   14   14    1   3     6     11  0.00000E+00
  1    7   14    1  2.74824E+03  4.02998E+03  3.00939E+02  1.00000E+00  1.14178E+03  4.01000E+03  4.03000E+03  7.85714E-01   14   14    1   3     6     11  0.00000E+00
  1    9   14    1  3.31750E+03  4.02999E+03  2.91234E+02  1.00000E+00  3.41373E+02  4.01000E+03  4.03000E+03  9.28571E-01   14   14    1   3     6     61  0.00000E+00
  1    5   11    1  1.77074E+03  4.22693E+03  3.01827E+02  1.00000E+00  6.46413E+03  4.01000E+03  4.03571E+03  7.14286E-02   14   14    1   3     6     11  0.00000E+00
  1    5   11    1  1.96439E+03  4.22442E+03  3.01827E+02  1.00000E+00  5.22174E+03  4.01000E+03  4.03571E+03  2.14286E-01   14   14    1   3     6     11  0.00000E+00
  1    6   11    1  2.16056E+03  4.22168E+03  3.01425E+02  1.00000E+00  4.08565E+03  4.01000E+03  4.03571E+03  3.57143E-01   14   14    1   3     6     11  0.00000E+00
  1    6   11    1  2.35945E+03  4.21909E+03  3.01425E+02  1.00000E+00  3.03413E+03  4.01000E+03  4.03571E+03  5.00000E-01   14   14    1   3     6     11  0.00000E+00
  1    7   11    1  2.56108E+03  4.21622E+03  3.00942E+02  1.00000E+00  2.05779E+03  4.01000E+03  4.03571E+03  6.42857E-01   14   14    1   3     6     11  0.00000E+00
  1    7   11    1  2.76573E+03  4.21345E+03  3.00942E+02  1.00000E+00  1.14125E+03  4.01000E+03  4.03571E+03  7.85714E-01   14   14    1   3     6     11  0.00000E+00
  1    9   12    1  3.33619E+03  4.14775E+03  2.91291E+02  1.00000E+00  3.41176E+02  4.01000E+03  4.03571E+03  9.28571E-01   14   14    1   3     6     61  0.00000E+00
  1    5   10    1  1.80556E+03  4.41615E+03  3.01830E+02  1.00000E+00  6.46918E+03  4.01000E+03  4.04143E+03  7.14286E-02   14   14    1   3     6     11  0.00000E+00
  1    6   10    1  2.00299E+03  4.41128E+03  3.01429E+02  1.00000E+00  5.22421E+03  4.01000E+03  4.04143E+03  2.14286E-01   14   14    1   3     6     11  0.00000E+00
  1    6   10    1  2.20294E+03  4.40583E+03  3.01429E+02  1.00000E+00  4.08675E+03  4.01000E+03  4.04143E+03  3.57143E-01   14   14    1   3     6     11  0.00000E+00
  1    7   10    1  2.40548E+03  4.40082E+03  3.00947E+02  1.00000E+00  3.03383E+03  4.01000E+03  4.04143E+03  5.00000E-01   14   14    1   3     6     11  0.00000E+00
  1    7   10    1  2.61075E+03  4.39509E+03  3.00947E+02  1.00000E+00  2.05707E+03  4.01000E+03  4.04143E+03  6.42857E-01   14   14    1   3     6     11  0.00000E+00
  1    8   10    1  2.81887E+03  4.38967E+03  3.00384E+02  1.00000E+00  1.14032E+03  4.01000E+03  4.04143E+03  7.85714E-01   14   14    1   3     6     11  0.00000E+00
  1    9   11    1  3.38104E+03  4.26079E+03  2.91452E+02  1.00000E+00  3.40748E+02  4.01000E+03  4.04143E+03  9.28571E-01   14   14    1   3     6     61  0.00000E+00
  1    5    9    1  1.85659E+03  4.59028E+03  3.01838E+02  1.00000E+00  6.47016E+03  4.01000E+03  4.04714E+03  7.14286E-02   14   14    1   3     6     11  0.00000E+00
  1    6    9    1  2.05911E+03  4.58294E+03  3.01439E+02  1.00000E+00  5.22342E+03  4.01000E+03  4.04714E+03  2.14286E-01   14   14    1   3     6     11  0.00000E+00
  1    6    9    1  2.26396E+03  4.57523E+03  3.01439E+02  1.00000E+00  4.08346E+03  4.01000E+03  4.04714E+03  3.57143E-01   14   14    1   3     6     11  0.00000E+00
  1    7    9    1  2.47111E+03  4.56761E+03  3.00960E+02  1.00000E+00  3.03139E+03  4.01000E+03  4.04714E+03  5.00000E-01   14   14    1   3     6     11  0.00000E+00
  1    7   10    1  2.68077E+03  4.55953E+03  3.00947E+02  1.00000E+00  2.05429E+03  4.01000E+03  4.04714E+03  6.42857E-01   14   14    1   3     6     11  0.00000E+00
  1    8   10    1  2.89420E+03  4.55128E+03  3.00384E+02  1.00000E+00  1.13986E+03  4.01000E+03  4.04714E+03  7.85714E-01   14   14    1   3     6     11  0.00000E+00
  1    9   10    1  3.43522E+03  4.36919E+03  2.91801E+02  1.00000E+00  3.39837E+02  4.01000E+03  4.04714E+03  9.28571E-01   14   14    1   3     6     61  0.00000E+00
  1    7   20    1  2.77162E+03  3.04762E+03  3.00984E+02  1.00000E+00  6.61550E+03  4.05000E+03  4.01286E+03  7.14286E-02   14   14    1   3     6     11  0.00000E+00
  1    8   20    1  3.08523E+03  3.06759E+03  3.00430E+02  1.00000E+00  5.31729E+03  4.05000E+03  4.01286E+03  2.14286E-01   14   14    1   3     6     11  0.00000E+00
  1    9   20    1  3.40204E+03  3.08770E+03  2.99875E+02  1.00000E+00  4.13249E+03  4.05000E+03  4.01286E+03  3.57143E-01   14   14    1   3     6     11  0.00000E+00
  1   11   20    1  3.72176E+03  3.10808E+03  2.99122E+02  1.00000E+00  3.04403E+03  4.05000E+03  4.01286E+03  5.00000E-01   14   14    1   3     6     11  0.00000E+00
  1   14   20    1  4.04406E+03  3.12805E+03  2.98626E+02  1.00000E+00  2.04067E+03  4.05000E+03  4.01286E+03  6.42857E-01   14   14    1   3     6     11  0.00000E+00
  1   18   20    1  4.36871E+03  3.14640E+03  2.97713E+02  1.00000E+00  1.11535E+03  4.05000E+03  4.01286E+03  7.85714E-01   14   14    1   3     6     11  0.00000E+00
  1   18   18    1  4.38483E+03  3.57080E+03  2.88952E+02  1.00000E+00  3.33126E+02  4.05000E+03  4.01286E+03  9.28571E-01   14   14    1   3     6     61  0.00000E+00
  1    8   19    1  2.93616E+03  3.28202E+03  3.00399E+02  1.00000E+00  6.48415E+03  4.05000E+03  4.01857E+03  7.14286E-02   14   14    1   3     6     11  0.00000E+00
  1    9   19    1  3.25609E+03  3.29890E+03  2.99840E+02  1.00000E+00  5.24159E+03  4.05000E+03  4.01857E+03  2.14286E-01   14   14    1   3     6     11  0.00000E+00
  1   10   19    1  3.58180E+03  3.31672E+03  2.99404E+02  1.00000E+00  4.09508E+03  4.05000E+03  4.01857E+03  3.57143E-01   14   14    1   3     6     11  0.00000E+00
  1   12   19    1  3.91327E+03  3.33468E+03  2.98842E+02  1.00000E+00  3.02847E+03  4.05000E+03  4.01857E+03  5.00000E-01   14   14    1   3     6     11  0.00000E+00
  1   17   19    1  4.25032E+03  3.35172E+03  2.98057E+02  1.00000E+00  2.03428E+03  4.05000E+03  4.01857E+03  6.42857E-01   14   14    1   3     6     11  0.00000E+00
  1   19   19    1  4.59267E+03  3.36659E+03  2.97095E+02  1.00000E+00  1.11173E+03  4.05000E+03  4.01857E+03  7.85714E-01   14   14    1   3     6     11  0.00000E+00
  1   18   17    1  4.50379E+03  3.70241E+03  2.88234E+02  1.00000E+00  3.32320E+02  4.05000E+03  4.01857E+03  9.28571E-01   14   14    1   3     6     61  0.00000E+00
  1    8   18    1  3.07140E+03  3.57954E+03  3.00384E+02  1.00000E+00  6.41972E+03  4.05000E+03  4.02429E+03  7.14286E-02   14   14    1   3     6     11  0.00000E+00
  1    9   18    1  3.39831E+03  3.59134E+03  2.99822E+02  1.00000E+00  5.21051E+03  4.05000E+03  4.02429E+03  2.14286E-01   14   14    1   3     6     11  0.00000E+00
  1   11   18    1  3.73330E+03  3.60379E+03  2.99060E+02  1.00000E+00  4.08292E+03  4.05000E+03  4.02429E+03  3.57143E-01   14   14    1   3     6     11  0.00000E+00
  1   15   18    1  4.07675E+03  3.61638E+03  2.98462E+02  1.00000E+00  3.02379E+03  4.05000E+03  4.02429E+03  5.00000E-01   14   14    1   3     6     11  0.00000E+00
  1   18   18    1  4.42861E+03  3.62781E+03  2.97653E+02  1.00000E+00  2.03000E+03  4.05000E+03  4.02429E+03  6.42857E-01   14   14    1   3     6     11  0.00000E+00
  1   19   18    1  4.78821E+03  3.63712E+03  2.97076E+02  1.00000E+00  1.10796E+03  4.05000E+03  4.02429E+03  7.85714E-01   14   14    1   3     6     11  0.00000E+00
  1   19   16    1  4.58025E+03  3.85055E+03  2.88911E+02  1.00000E+00  3.31930E+02  4.05000E+03  4.02429E+03  9.28571E-01   14   14    1   3     6     61  0.00000E+00
  1    8   14    1  3.14366E+03  4.03007E+03  3.00373E+02  1.00000E+00  6.33824E+03  4.05000E+03  4.03000E+03  7.14286E-02   14   14    1   3     6     11  0.00000E+00
  1    9   14    1  3.46826E+03  4.03007E+03  2.99809E+02  1.00000E+00  5.16755E+03  4.05000E+03  4.03000E+03  2.14286E-01   14   14    1   3     6     11  0.00000E+00
  1   11   14    1  3.80287E+03  4.03006E+03  2.99045E+02  1.00000E+00  4.06577E+03  4.05000E+03  4.03000E+03  3.57143E-01   14   14    1   3     6     11  0.00000E+00
  1   16   14    1  4.14863E+03  4.03006E+03  2.98282E+02  1.00000E+00  3.01884E+03  4.05000E+03  4.03000E+03  5.00000E-01   14   14    1   3     6     11  0.00000E+00
  1   18   14    1  4.50566E+03  4.03006E+03  2.97638E+02  1.00000E+00  2.02791E+03  4.05000E+03  4.03000E+03  6.42857E-01   14   14    1   3     6     11  0.00000E+00
  1   20   14    1  4.87254E+03  4.03006E+03  2.96183E+02  1.00000E+00  1.10597E+03  4.05000E+03  4.03000E+03  7.85714E-01   14   14    1   3     6     11  0.00000E+00
  1   19   14    1  4.61017E+03  4.03002E+03  2.88853E+02  1.00000E+00  3.32282E+02  4.05000E+03  4.03000E+03  9.28571E-01   14   14    1   3     6     61  0.00000E+00
  1    8   10    1  3.07138E+03  4.48054E+03  3.00384E+02  1.00000E+00  6.41969E+03  4.05000E+03  4.03571E+03  7.14286E-02   14   14    1   3     6     11  0.00000E+00
  1    9   10    1  3.39829E+03  4.46874E+03  2.99822E+02  1.00000E+00  5.21049E+03  4.05000E+03  4.03571E+03  2.14286E-01   14   14    1   3     6     11  0.00000E+00
  1   11   10    1  3.73327E+03  4.45628E+03  2.99060E+02  1.00000E+00  4.08291E+03  4.05000E+03  4.03571E+03  3.57143E-01   14   14    1   3     6     11  0.00000E+00
  1   15   10    1  4.07672E+03  4.44369E+03  2.98462E+02  1.00000E+00  3.02379E+03  4.05000E+03  4.03571E+03  5.00000E-01   14   14    1   3     6     11  0.00000E+00
  1   18   10    1  4.42857E+03  4.43227E+03  2.97653E+02  1.00000E+00  2.03000E+03  4.05000E+03  4.03571E+03  6.42857E-01   14   14    1   3     6     11  0.00000E+00
  1   19   10    1  4.78817E+03  4.42296E+03  2.97076E+02  1.00000E+00  1.10795E+03  4.05000E+03  4.03571E+03  7.85714E-01   14   14    1   3     6     11  0.00000E+00
  1   19   12    1  4.58024E+03  4.20950E+03  2.88911E+02  1.00000E+00  3.31928E+02  4.05000E+03  4.03571E+03  9.28571E-01   14   14    1   3     6     61  0.00000E+00
  1    8    9    1  2.93613E+03  4.77805E+03  3.00399E+02  1.00000E+00  6.48413E+03  4.05000E+03  4.04143E+03  7.14286E-02   14   14    1   3     6     11  0.00000E+00
  1    9    9    1  3.25605E+03  4.76117E+03  2.99840E+02  1.00000E+00  5.24158E+03  4.05000E+03  4.04143E+03  2.14286E-01   14   14    1   3     6     11  0.00000E+00
  1   10    9    1  3.58176E+03  4.74335E+03  2.99404E+02  1.00000E+00  4.09507E+03  4.05000E+03  4.04143E+03  3.57143E-01   14   14    1   3     6     11  0.00000E+00
  1   12    9    1  3.91323E+03  4.72539E+03  2.98842E+02  1.00000E+00  3.02845E+03  4.05000E+03  4.04143E+03  5.00000E-01   14   14    1   3     6     11  0.00000E+00
  1   17    9    1  4.25027E+03  4.70835E+03  2.98057E+02  1.00000E+00  2.03429E+03  4.05000E+03  4.04143E+03  6.42857E-01   14   14    1   3     6     11  0.00000E+00
  1   19    9    1  4.59261E+03  4.69348E+03  2.97095E+02  1.00000E+00  1.11173E+03  4.05000E+03  4.04143E+03  7.85714E-01   14   14    1   3     6     11  0.00000E+00
  1   18   11    1  4.50378E+03  4.35763E+03  2.88234E+02  1.00000E+00  3.32321E+02  4.05000E+03  4.04143E+03  9.28571E-01   14   14    1   3     6     61  0.00000E+00
  1    7    8    1  2.77161E+03  5.01239E+03  3.00984E+02  1.00000E+00  6.61549E+03  4.05000E+03  4.04714E+03  7.14286E-02   14   14    1   3     6     11  0.00000E+00
  1    8    8    1  3.08521E+03  4.99241E+03  3.00430E+02  1.00000E+00  5.31730E+03  4.05000E+03  4.04714E+03  2.14286E-01   14   14    1   3     6     11  0.00000E+00
  1    9    8    1  3.40202E+03  4.97231E+03  2.99875E+02  1.00000E+00  4.13248E+03  4.05000E+03  4.04714E+03  3.57143E-01   14   14    1   3     6     11  0.00000E+00
  1   11    8    1  3.72174E+03  4.95193E+03  2.99122E+02  1.00000E+00  3.04402E+03  4.05000E+03  4.04714E+03  5.00000E-01   14   14    1   3     6     11  0.00000E+00
  1   14    8    1  4.04403E+03  4.93196E+03  2.98626E+02  1.00000E+00  2.04067E+03  4.05000E+03  4.04714E+03  6.42857E-01   14   14    1   3     6     11  0.00000E+00
  1   18    8    1  4.36868E+03  4.91361E+03  2.97713E+02  1.00000E+00  1.11534E+03  4.05000E+03  4.04714E+03  7.85714E-01   14   14    1   3     6     11  0.00000E+00
  1   18   10    1  4.38482E+03  4.48922E+03  2.88952E+02  1.00000E+00  3.33127E+02  4.05000E+03  4.04714E+03  9.28571E-01   14   14    1   3     6     61  0.00000E+00
  1    5   19    1  1.93438E+03  3.30750E+03  3.01838E+02  1.00000E+00  6.46849E+03  4.01286E+03  4.01000E+03  7.14286E-02   14   14    1   3     6     11  0.00000E+00
  1    6   19    1  2.14528E+03  3.31738E+03  3.01439E+02  1.00000E+00  5.22404E+03  4.01286E+03  4.01000E+03  2.14286E-01   14   14    1   3     6     11  0.00000E+00
  1    6   19    1  2.35869E+03  3.32692E+03  3.01439E+02  1.00000E+00  4.08327E+03  4.01286E+03  4.01000E+03  3.57143E-01   14   14    1   3     6     11  0.00000E+00
  1    7   19    1  2.57462E+03  3.33728E+03  3.00960E+02  1.00000E+00  3.03234E+03  4.01286E+03  4.01000E+03  5.00000E-01   14   14    1   3     6     11  0.00000E+00
  1    7   19    1  2.79320E+03  3.34719E+03  3.00960E+02  1.00000E+00  2.05297E+03  4.01286E+03  4.01000E+03  6.42857E-01   14   14    1   3     6     11  0.00000E+00
  1    8   19    1  3.01447E+03  3.35839E+03  3.00399E+02  1.00000E+00  1.13940E+03  4.01286E+03  4.01000E+03  7.85714E-01   14   14    1   3     6     11  0.00000E+00
  1   10   18    1  3.52526E+03  3.59324E+03  2.90463E+02  1.00000E+00  3.39064E+02  4.01286E+03  4.01000E+03  9.28571E-01   14   14    1   3     6     61  0.00000E+00
  1    6   20    1  2.00620E+03  3.15266E+03  3.01459E+02  1.00000E+00  6.49477E+03  4.01857E+03  4.01000E+03  7.14286E-02   14   14    1   3     6     11  0.00000E+00
  1    6   20    1  2.22537E+03  3.16508E+03  3.01459E+02  1.00000E+00  5.23706E+03  4.01857E+03  4.01000E+03  2.14286E-01   14   14    1   3     6     11  0.00000E+00
  1    7   20    1  2.44637E+03  3.17686E+03  3.00984E+02  1.00000E+00  4.08751E+03  4.01857E+03  4.01000E+03  3.57143E-01   14   14    1   3     6     11  0.00000E+00
  1    7   20    1  2.66920E+03  3.18950E+03  3.00984E+02  1.00000E+00  3.03112E+03  4.01857E+03  4.01000E+03  5.00000E-01   14   14    1   3     6     11  0.00000E+00
  1    8   19    1  2.89414E+03  3.20217E+03  3.00399E+02  1.00000E+00  2.05184E+03  4.01857E+03  4.01000E+03  6.42857E-01   14   14    1   3     6     11  0.00000E+00
  1    8   19    1  3.12344E+03  3.21532E+03  3.00399E+02  1.00000E+00  1.13635E+03  4.01857E+03  4.01000E+03  7.85714E-01   14   14    1   3     6     11  0.00000E+00
  1   10   18    1  3.60324E+03  3.51138E+03  2.90463E+02  1.00000E+00  3.38611E+02  4.01857E+03  4.01000E+03  9.28571E-01   14   14    1   3     6     61  0.00000E+00
  1    6   20    1  2.10844E+03  3.02807E+03  3.01459E+02  1.00000E+00  6.52123E+03  4.02429E+03  4.01000E+03  7.14286E-02   14   14    1   3     6     11  0.00000E+00
  1    6   20    1  2.34029E+03  3.04167E+03  3.01459E+02  1.00000E+00  5.25440E+03  4.02429E+03  4.01000E+03  2.14286E-01   14   14    1   3     6     11  0.00000E+00
  1    7   20    1  2.57413E+03  3.05595E+03  3.00984E+02  1.00000E+00  4.10006E+03  4.02429E+03  4.01000E+03  3.57143E-01   14   14    1   3     6     11  0.00000E+00
  1    8   20    1  2.80999E+03  3.06979E+03  3.00430E+02  1.00000E+00  3.03609E+03  4.02429E+03  4.01000E+03  5.00000E-01   14   14    1   3     6     11  0.00000E+00
  1    8   20    1  3.04777E+03  3.08501E+03  3.00430E+02  1.00000E+00  2.05295E+03  4.02429E+03  4.01000E+03  6.42857E-01   14   14    1   3     6     11  0.00000E+00
  1    9   20    1  3.28741E+03  3.09988E+03  2.99875E+02  1.00000E+00  1.13515E+03  4.02429E+03  4.01000E+03  7.85714E-01   14   14    1   3     6     11  0.00000E+00
  1   11   19    1  3.71953E+03  3.44019E+03  2.90816E+02  1.00000E+00  3.38239E+02  4.02429E+03  4.01000E+03  9.28571E-01   14   14    1   3     6     61  0.00000E+00
  1    6   20    1  2.22102E+03  2.92132E+03  3.01459E+02  1.00000E+00  6.51109E+03  4.03000E+03  4.01000E+03  7.14286E-02   14   14    1   3     6     11  0.00000E+00
  1    7   20    1  2.46473E+03  2.93660E+03  3.00984E+02  1.00000E+00  5.24728E+03  4.03000E+03  4.01000E+03  2.14286E-01   14   14    1   3     6     11  0.00000E+00
  1    7   20    1  2.71066E+03  2.95252E+03  3.00984E+02  1.00000E+00  4.09425E+03  4.03000E+03  4.01000E+03  3.57143E-01   14   14    1   3     6     11  0.00000E+00
  1    8   20    1  2.95872E+03  2.96888E+03  3.00430E+02  1.00000E+00  3.03353E+03  4.03000E+03  4.01000E+03  5.00000E-01   14   14    1   3     6     11  0.00000E+00
  1    9   20    1  3.20886E+03  2.98501E+03  2.99875E+02  1.00000E+00  2.04871E+03  4.03000E+03  4.01000E+03  6.42857E-01   14   14    1   3     6     11  0.00000E+00
  1    9   20    1  3.46094E+03  3.00200E+03  2.99875E+02  1.00000E+00  1.13273E+03  4.03000E+03  4.01000E+03  7.85714E-01   14   14    1   3     6     11  0.00000E+00
  1   11   19    1  3.84291E+03  3.39283E+03  2.90816E+02  1.00000E+00  3.37963E+02  4.03000E+03  4.01000E+03  9.28571E-01   14   14    1   3     6     61  0.00000E+00
  1    6   20    1  2.34472E+03  2.85579E+03  3.01459E+02  1.00000E+00  6.50972E+03  4.03571E+03  4.01000E+03  7.14286E-02   14   14    1   3     6     11  0.00000E+00
  1    7   20    1  2.60214E+03  2.87329E+03  3.00984E+02  1.00000E+00  5.24721E+03  4.03571E+03  4.01000E+03  2.14286E-01   14   14    1   3     6     11  0.00000E+00
  1    8   20    1  2.86196E+03  2.89052E+03  3.00430E+02  1.00000E+00  4.09297E+03  4.03571E+03  4.01000E+03  3.57143E-01   14   14    1   3     6     11  0.00000E+00
  1    8   20    1  3.12412E+03  2.90852E+03  3.00430E+02  1.00000E+00  3.03093E+03  4.03571E+03  4.01000E+03  5.00000E-01   14   14    1   3     6     11  0.00000E+00
  1    9   20    1  3.38848E+03  2.92669E+03  2.99875E+02  1.00000E+00  2.04666E+03  4.03571E+03  4.01000E+03  6.42857E-01   14   14    1   3     6     11  0.00000E+00
  1   10   20    1  3.65486E+03  2.94485E+03  2.99443E+02  1.00000E+00  1.12946E+03  4.03571E+03  4.01000E+03  7.85714E-01   14   14    1   3     6     11  0.00000E+00
  1   13   19    1  3.97776E+03  3.38114E+03  2.90264E+02  1.00000E+00  3.37031E+02  4.03571E+03  4.01000E+03  9.28571E-01   14   14    1   3     6     61  0.00000E+00
  1    7   20    1  2.48261E+03  2.84421E+03  3.00984E+02  1.00000E+00  6.52422E+03  4.04143E+03  4.01000E+03  7.14286E-02   14   14    1   3     6     11  0.00000E+00
  1    7   20    1  2.75634E+03  2.86262E+03  3.00984E+02  1.00000E+00  5.25565E+03  4.04143E+03  4.01000E+03  2.14286E-01   14   14    1   3     6     11  0.00000E+00
  1    8   20    1  3.03271E+03  2.88194E+03  3.00430E+02  1.00000E+00  4.09861E+03  4.04143E+03  4.01000E+03  3.57143E-01   14   14    1   3     6     11  0.00000E+00
  1    9   20    1  3.31159E+03  2.90107E+03  2.99875E+02  1.00000E+00  3.03201E+03  4.04143E+03  4.01000E+03  5.00000E-01   14   14    1   3     6     11  0.00000E+00
  1   10   20    1  3.59281E+03  2.92048E+03  2.99443E+02  1.00000E+00  2.04418E+03  4.04143E+03  4.01000E+03  6.42857E-01   14   14    1   3     6     11  0.00000E+00
  1   12   20    1  3.87614E+03  2.93966E+03  2.98883E+02  1.00000E+00  1.12543E+03  4.04143E+03  4.01000E+03  7.85714E-01   14   14    1   3     6     11  0.00000E+00
  1   16   19    1  4.11991E+03  3.41333E+03  2.89996E+02  1.00000E+00  3.35590E+02  4.04143E+03  4.01000E+03  9.28571E-01   14   14    1   3     6     61  0.00000E+00
  1    7   20    1  2.62833E+03  2.90654E+03  3.00984E+02  1.00000E+00  6.55799E+03  4.04714E+03  4.01000E+03  7.14286E-02   14   14    1   3     6     11  0.00000E+00
  1    8   20    1  2.92087E+03  2.92590E+03  3.00430E+02  1.00000E+00  5.27879E+03  4.04714E+03  4.01000E+03  2.14286E-01   14   14    1   3     6     11  0.00000E+00
  1    9   20    1  3.21633E+03  2.94550E+03  2.99875E+02  1.00000E+00  4.11003E+03  4.04714E+03  4.01000E+03  3.57143E-01   14   14    1   3     6     11  0.00000E+00
  1   10   20    1  3.51449E+03  2.96582E+03  2.99443E+02  1.00000E+00  3.03584E+03  4.04714E+03  4.01000E+03  5.00000E-01   14   14    1   3     6     11  0.00000E+00
  1   11   20    1  3.81511E+03  2.98602E+03  2.99122E+02  1.00000E+00  2.04233E+03  4.04714E+03  4.01000E+03  6.42857E-01   14   14    1   3     6     11  0.00000E+00
  1   16   20    1  4.11793E+03  3.00533E+03  2.98361E+02  1.00000E+00  1.12080E+03  4.04714E+03  4.01000E+03  7.85714E-01   14   14    1   3     6     11  0.00000E+00
  1   17   19    1  4.26523E+03  3.48412E+03  2.89929E+02  1.00000E+00  3.33946E+02  4.04714E+03  4.01000E+03  9.28571E-01   14   14    1   3     6     61  0.00000E+00
  1    5    9    1  1.93439E+03  4.75253E+03  3.01838E+02  1.00000E+00  6.46849E+03  4.01286E+03  4.05000E+03  7.14286E-02   14   14    1   3     6     11  0.00000E+00
  1    6    9    1  2.14530E+03  4.74264E+03  3.01439E+02  1.00000E+00  5.22404E+03  4.01286E+03  4.05000E+03  2.14286E-01   14   14    1   3     6     11  0.00000E+00
  1    6    9    1  2.35871E+03  4.73310E+03  3.01439E+02  1.00000E+00  4.08326E+03  4.01286E+03  4.05000E+03  3.57143E-01   14   14    1   3     6     11  0.00000E+00
  1    7    9    1  2.57464E+03  4.72275E+03  3.00960E+02  1.00000E+00  3.03234E+03  4.01286E+03  4.05000E+03  5.00000E-01   14   14    1   3     6     11  0.00000E+00
  1    7    9    1  2.79322E+03  4.71283E+03  3.00960E+02  1.00000E+00  2.05297E+03  4.01286E+03  4.05000E+03  6.42857E-01   14   14    1   3     6     11  0.00000E+00
  1    8    9    1  3.01449E+03  4.70164E+03  3.00399E+02  1.00000E+00  1.13939E+03  4.01286E+03  4.05000E+03  7.85714E-01   14   14    1   3     6     11  0.00000E+00
  1   10   10    1  3.52527E+03  4.46678E+03  2.90463E+02  1.00000E+00  3.39065E+02  4.01286E+03  4.05000E+03  9.28571E-01   14   14    1   3     6     61  0.00000E+00
  1    6    8    1  2.00621E+03  4.90736E+03  3.01459E+02  1.00000E+00  6.49480E+03  4.01857E+03  4.05000E+03  7.14286E-02   14   14    1   3     6     11  0.00000E+00
  1    6    8    1  2.22538E+03  4.89494E+03  3.01459E+02  1.00000E+00  5.23708E+03  4.01857E+03  4.05000E+03  2.14286E-01   14   14    1   3     6     11  0.00000E+00
  1    7    8    1  2.44639E+03  4.88316E+03  3.00984E+02  1.00000E+00  4.08752E+03  4.01857E+03  4.05000E+03  3.57143E-01   14   14    1   3     6     11  0.00000E+00
  1    7    8    1  2.66921E+03  4.87052E+03  3.00984E+02  1.00000E+00  3.03114E+03  4.01857E+03  4.05000E+03  5.00000E-01   14   14    1   3     6     11  0.00000E+00
  1    8    9    1  2.89416E+03  4.85784E+03  3.00399E+02  1.00000E+00  2.05184E+03  4.01857E+03  4.05000E+03  6.42857E-01   14   14    1   3     6     11  0.00000E+00
  1    8    9    1  3.12345E+03  4.84470E+03  3.00399E+02  1.00000E+00  1.13634E+03  4.01857E+03  4.05000E+03  7.85714E-01   14   14    1   3     6     11  0.00000E+00
  1   10   10    1  3.60325E+03  4.54863E+03  2.90463E+02  1.00000E+00  3.38611E+02  4.01857E+03  4.05000E+03  9.28571E-01   14   14    1   3     6     61  0.00000E+00
  1    6    8    1  2.10846E+03  5.03195E+03  3.01459E+02  1.00000E+00  6.52122E+03  4.02429E+03  4.05000E+03  7.14286E-02   14   14    1   3     6     11  0.00000E+00
  1    6    8    1  2.34031E+03  5.01836E+03  3.01459E+02  1.00000E+00  5.25440E+03  4.02429E+03  4.05000E+03  2.14286E-01   14   14    1   3     6     11  0.00000E+00
  1    7    8    1  2.57416E+03  5.00407E+03  3.00984E+02  1.00000E+00  4.10006E+03  4.02429E+03  4.05000E+03  3.57143E-01   14   14    1   3     6     11  0.00000E+00
  1    8    8    1  2.81001E+03  4.99023E+03  3.00430E+02  1.00000E+00  3.03609E+03  4.02429E+03  4.05000E+03  5.00000E-01   14   14    1   3     6     11  0.00000E+00
  1    8    8    1  3.04779E+03  4.97501E+03  3.00430E+02  1.00000E+00  2.05295E+03  4.02429E+03  4.05000E+03  6.42857E-01   14   14    1   3     6     11  0.00000E+00
  1    9    8    1  3.28743E+03  4.96014E+03  2.99875E+02  1.00000E+00  1.13516E+03  4.02429E+03  4.05000E+03  7.85714E-01   14   14    1   3     6     11  0.00000E+00
  1   11    9    1  3.71955E+03  4.61982E+03  2.90816E+02  1.00000E+00  3.38242E+02  4.02429E+03  4.05000E+03  9.28571E-01   14   14    1   3     6     61  0.00000E+00
  1    6    8    1  2.22105E+03  5.13870E+03  3.01459E+02  1.00000E+00  6.51109E+03  4.03000E+03  4.05000E+03  7.14286E-02   14   14    1   3     6     11  0.00000E+00
  1    7    8    1  2.46476E+03  5.12342E+03  3.00984E+02  1.00000E+00  5.24728E+03  4.03000E+03  4.05000E+03  2.14286E-01   14   14    1   3     6     11  0.00000E+00
  1    7    8    1  2.71069E+03  5.10750E+03  3.00984E+02  1.00000E+00  4.09425E+03  4.03000E+03  4.05000E+03  3.57143E-01   14   14    1   3     6     11  0.00000E+00
  1    8    8    1  2.95875E+03  5.09114E+03  3.00430E+02  1.00000E+00  3.03353E+03  4.03000E+03  4.05000E+03  5.00000E-01   14   14    1   3     6     11  0.00000E+00
  1    9    8    1  3.20890E+03  5.07501E+03  2.99875E+02  1.00000E+00  2.04872E+03  4.03000E+03  4.05000E+03  6.42857E-01   14   14    1   3     6     11  0.00000E+00
  1    9    8    1  3.46098E+03  5.05802E+03  2.99875E+02  1.00000E+00  1.13274E+03  4.03000E+03  4.05000E+03  7.85714E-01   14   14    1   3     6     11  0.00000E+00
  1   11    9    1  3.84294E+03  4.66718E+03  2.90816E+02  1.00000E+00  3.37962E+02  4.03000E+03  4.05000E+03  9.28571E-01   14   14    1   3     6     61  0.00000E+00
  1    6    8    1  2.34475E+03  5.20422E+03  3.01459E+02  1.00000E+00  6.50973E+03  4.03571E+03  4.05000E+03  7.14286E-02   14   14    1   3     6     11  0.00000E+00
  1    7    8    1  2.60217E+03  5.18672E+03  3.00984E+02  1.00000E+00  5.24721E+03  4.03571E+03  4.05000E+03  2.14286E-01   14   14    1   3     6     11  0.00000E+00