@ [ MODPATH 5.0 (TREF=   0.000000E+00 ) ]
  1   27   11    1  8.05892E+03  4.26534E+03  2.83273E+02  1.00000E+00  2.82764E+05  1.00000E+02  7.76000E+03  9.99900E-01    1    1    1   1     1     11  0.00000E+00
  1   27    5    1  8.05967E+03  6.24702E+03  2.83297E+02  1.00000E+00  2.50622E+05  1.00000E+02  7.96000E+03  9.99900E-01    1    1    1   1     1     11  0.00000E+00
  1   27    8    1  8.05756E+03  5.05045E+03  2.83279E+02  1.00000E+00  1.96702E+05  3.00000E+02  7.76000E+03  9.99900E-01    1    1    1   1     1     11  0.00000E+00
  1   27    3    1  8.05863E+03  6.92199E+03  2.83308E+02  1.00000E+00  1.86256E+05  3.00000E+02  7.96000E+03  9.99900E-01    1    1    1   1     1     11  0.00000E+00
  1   27    7    1  8.05619E+03  5.52680E+03  2.83284E+02  1.00000E+00  1.63047E+05  5.00000E+02  7.76000E+03  9.99900E-01    2    1    1   1     1     11  0.00000E+00
  1   27    3    1  8.05719E+03  7.17108E+03  2.83308E+02  1.00000E+00  1.56340E+05  5.00000E+02  7.96000E+03  9.99900E-01    2    1    1   1     1     11  0.00000E+00
  1   27    6    1  8.05453E+03  5.88267E+03  2.83290E+02  1.00000E+00  1.41108E+05  7.00000E+02  7.76000E+03  9.99900E-01    2    1    1   1     1     11  0.00000E+00
  1   27    2    1  8.05539E+03  7.32161E+03  2.83311E+02  1.00000E+00  1.36223E+05  7.00000E+02  7.96000E+03  9.99900E-01    2    1    1   1     1     11  0.00000E+00
  1   27    5    1  8.05260E+03  6.17375E+03  2.83297E+02  1.00000E+00  1.24543E+05  9.00000E+02  7.76000E+03  9.99900E-01    3    1    1   1     1     11  0.00000E+00
  1   27    2    1  8.05323E+03  7.43093E+03  2.83311E+02  1.00000E+00  1.20801E+05  9.00000E+02  7.96000E+03  9.99900E-01    3    1    1   1     1     11  0.00000E+00
  1   27    5    1  8.05039E+03  6.43239E+03  2.83297E+02  1.00000E+00  1.10637E+05  1.10000E+03  7.76000E+03  9.99900E-01    3    1    1   1     1     11  0.00000E+00
  1   27    2    1  8.05072E+03  7.52202E+03  2.83311E+02  1.00000E+00  1.07719E+05  1.10000E+03  7.96000E+03  9.99900E-01    3    1    1   1     1     11  0.00000E+00
  1   27    4    1  8.04756E+03  6.66059E+03  2.83303E+02  1.00000E+00  9.85742E+04  1.30000E+03  7.76000E+03  9.99900E-01    4    1    1   1     1     11  0.00000E+00
  1   27    2    1  8.04781E+03  7.59739E+03  2.83311E+02  1.00000E+00  9.64630E+04  1.30000E+03  7.96000E+03  9.99900E-01    4    1    1   1     1     11  0.00000E+00
  1   27    4    1  8.04448E+03  6.84110E+03  2.83303E+02  1.00000E+00  8.87738E+04  1.50000E+03  7.76000E+03  9.99900E-01    4    1    1   1     1     11  0.00000E+00
  1   27    2    1  8.04453E+03  7.65755E+03  2.83311E+02  1.00000E+00  8.71013E+04  1.50000E+03  7.96000E+03  9.99900E-01    4    1    1   1     1     11  0.00000E+00
  1   27    3    1  8.04059E+03  7.01361E+03  2.83308E+02  1.00000E+00  7.93039E+04  1.70000E+03  7.76000E+03  9.99900E-01    5    1    1   1     1     11  0.00000E+00
  1   27    1    1  8.04061E+03  7.71444E+03  2.83313E+02  1.00000E+00  7.80120E+04  1.70000E+03  7.96000E+03  9.99900E-01    5    1    1   1     1     11  0.00000E+00
  1   27    3    1  8.03614E+03  7.18408E+03  2.83308E+02  1.00000E+00  6.94070E+04  1.90000E+03  7.76000E+03  9.99900E-01    5    1    1   1     1     11  0.00000E+00
  1   27    1    1  8.03602E+03  7.76985E+03  2.83313E+02  1.00000E+00  6.86280E+04  1.90000E+03  7.96000E+03  9.99900E-01    5    1    1   1     1     11  0.00000E+00
  1   27    2    1  8.03086E+03  7.30974E+03  2.83311E+02  1.00000E+00  6.20703E+04  2.10000E+03  7.76000E+03  9.99900E-01    6    1    1   1     1     11  0.00000E+00
  1   27    1    1  8.03060E+03  7.81136E+03  2.83313E+02  1.00000E+00  6.14177E+04  2.10000E+03  7.96000E+03  9.99900E-01    6    1    1   1     1     11  0.00000E+00
  1   27    2    1  8.02444E+03  7.43019E+03  2.83311E+02  1.00000E+00  5.33902E+04  2.30000E+03  7.76000E+03  9.99900E-01    6    1    1   1     1     11  0.00000E+00
  1   27    1    1  8.02421E+03  7.85110E+03  2.83313E+02  1.00000E+00  5.28631E+04  2.30000E+03  7.96000E+03  9.99900E-01    6    1    1   1     1     11  0.00000E+00
  1   27    2    1  8.01664E+03  7.54101E+03  2.83311E+02  1.00000E+00  4.54160E+04  2.50000E+03  7.76000E+03  9.99900E-01    7    1    1   1     1     11  0.00000E+00
  1   27    1    1  8.01649E+03  7.88740E+03  2.83313E+02  1.00000E+00  4.51261E+04  2.50000E+03  7.96000E+03  9.99900E-01    7    1    1   1     1     11  0.00000E+00
  1   27    2    1  8.00726E+03  7.63544E+03  2.83311E+02  1.00000E+00  3.66850E+04  2.70000E+03  7.76000E+03  9.99900E-01    7    1    1   1     1     11  0.00000E+00
  1   27    1    1  8.00718E+03  7.91855E+03  2.83313E+02  1.00000E+00  3.66180E+04  2.70000E+03  7.96000E+03  9.99900E-01    7    1    1   1     1     11  0.00000E+00
  1   27    1    1  7.99508E+03  7.72534E+03  2.83313E+02  1.00000E+00  1.10679E+04  2.90000E+03  7.76000E+03  9.99900E-01    8    1    1   1     1     11  0.00000E+00
  1   27    1    1  7.99508E+03  7.94845E+03  2.83313E+02  1.00000E+00  1.10679E+04  2.90000E+03  7.96000E+03  9.99900E-01    8    1    1   1     1     11  0.00000E+00
  1   27    1    1  7.98196E+03  7.72846E+03  2.83313E+02  1.00000E+00  1.01609E+04  3.10000E+03  7.76000E+03  9.99900E-01    8    1    1   1     1     11  0.00000E+00
  1   27    1    1  7.98196E+03  7.94949E+03  2.83313E+02  1.00000E+00  1.01609E+04  3.10000E+03  7.96000E+03  9.99900E-01    8    1    1   1     1     11  0.00000E+00
  1   27    1    1  7.97037E+03  7.73106E+03  2.83313E+02  1.00000E+00  9.42228E+03  3.27500E+03  7.76000E+03  9.99900E-01    9    1    1   1     1     11  0.00000E+00
  1   27    1    1  7.97037E+03  7.95035E+03  2.83313E+02  1.00000E+00  9.42228E+03  3.27500E+03  7.96000E+03  9.99900E-01    9    1    1   1     1     11  0.00000E+00
  1   27    1    1  7.96037E+03  7.73322E+03  2.83313E+02  1.00000E+00  8.82638E+03  3.42500E+03  7.76000E+03  9.99900E-01    9    1    1   1     1     11  0.00000E+00
  1   27    1    1  7.96037E+03  7.95107E+03  2.83313E+02  1.00000E+00  8.82638E+03  3.42500E+03  7.96000E+03  9.99900E-01    9    1    1   1     1     11  0.00000E+00
  1   27    1    1  7.95199E+03  7.73496E+03  2.83313E+02  1.00000E+00  8.35299E+03  3.55000E+03  7.76000E+03  9.99900E-01   10    1    1   1     1     11  0.00000E+00
  1   27    1    1  7.95199E+03  7.95165E+03  2.83313E+02  1.00000E+00  8.35299E+03  3.55000E+03  7.96000E+03  9.99900E-01   10    1    1   1     1     11  0.00000E+00
  1   27    1    1  7.94525E+03  7.73631E+03  2.83313E+02  1.00000E+00  7.98901E+03  3.65000E+03  7.76000E+03  9.99900E-01   10    1    1   1     1     11  0.00000E+00
  1   27    1    1  7.94525E+03  7.95210E+03  2.83313E+02  1.00000E+00  7.98901E+03  3.65000E+03  7.96000E+03  9.99900E-01   10    1    1   1     1     11  0.00000E+00
  1   27    1    1  7.93933E+03  7.73746E+03  2.83313E+02  1.00000E+00  7.68037E+03  3.73750E+03  7.76000E+03  9.99900E-01   11    1    1   1     1     11  0.00000E+00
  1   27    1    1  7.93933E+03  7.95249E+03  2.83313E+02  1.00000E+00  7.68037E+03  3.73750E+03  7.96000E+03  9.99900E-01   11    1    1   1     1     11  0.00000E+00
  1   27    1    1  7.93424E+03  7.73843E+03  2.83313E+02  1.00000E+00  7.42303E+03  3.81250E+03  7.76000E+03  9.99900E-01   11    1    1   1     1     11  0.00000E+00
  1   27    1    1  7.93424E+03  7.95281E+03  2.83313E+02  1.00000E+00  7.42303E+03  3.81250E+03  7.96000E+03  9.99900E-01   11    1    1   1     1     11  0.00000E+00
  1   27    1    1  7.92999E+03  7.73921E+03  2.83313E+02  1.00000E+00  7.21331E+03  3.87500E+03  7.76000E+03  9.99900E-01   12    1    1   1     1     11  0.00000E+00
  1   27    1    1  7.92999E+03  7.95307E+03  2.83313E+02  1.00000E+00  7.21331E+03  3.87500E+03  7.96000E+03  9.99900E-01   12    1    1   1     1     11  0.00000E+00
  1   27    1    1  7.92658E+03  7.73983E+03  2.83313E+02  1.00000E+00  7.04869E+03  3.92500E+03  7.76000E+03  9.99900E-01   12    1    1   1     1     11  0.00000E+00
  1   27    1    1  7.92658E+03  7.95328E+03  2.83313E+02  1.00000E+00  7.04869E+03  3.92500E+03  7.96000E+03  9.99900E-01   12    1    1   1     1     11  0.00000E+00
  1   27    1    1  7.92384E+03  7.74032E+03  2.83313E+02  1.00000E+00  6.91887E+03  3.96500E+03  7.76000E+03  9.99900E-01   13    1    1   1     1     11  0.00000E+00
  1   27    1    1  7.92384E+03  7.95344E+03  2.83313E+02  1.00000E+00  6.91887E+03  3.96500E+03  7.96000E+03  9.99900E-01   13    1    1   1     1     11  0.00000E+00
  1   27    1    1  7.92179E+03  7.74068E+03  2.83313E+02  1.00000E+00  6.82264E+03  3.99500E+03  7.76000E+03  9.99900E-01   13    1    1   1     1     11  0.00000E+00
  1   27    1    1  7.92179E+03  7.95356E+03  2.83313E+02  1.00000E+00  6.82264E+03  3.99500E+03  7.96000E+03  9.99900E-01   13    1    1   1     1     11  0.00000E+00
  1   27    1    1  7.92008E+03  7.74098E+03  2.83313E+02  1.00000E+00  6.74314E+03  4.02000E+03  7.76000E+03  9.99900E-01   14    1    1   1     1     11  0.00000E+00
  1   27    1    1  7.92008E+03  7.95366E+03  2.83313E+02  1.00000E+00  6.74314E+03  4.02000E+03  7.96000E+03  9.99900E-01   14    1    1   1     1     11  0.00000E+00
  1   27    1    1  7.91871E+03  7.74122E+03  2.83313E+02  1.00000E+00  6.68002E+03  4.04000E+03  7.76000E+03  9.99900E-01   14    1    1   1     1     11  0.00000E+00
  1   27    1    1  7.91871E+03  7.95374E+03  2.83313E+02  1.00000E+00  6.68002E+03  4.04000E+03  7.96000E+03  9.99900E-01   14    1    1   1     1     11  0.00000E+00
  1   27    1    1  7.91699E+03  7.74151E+03  2.83313E+02  1.00000E+00  6.60170E+03  4.06500E+03  7.76000E+03  9.99900E-01   15    1    1   1     1     11  0.00000E+00
  1   27    1    1  7.91699E+03  7.95384E+03  2.83313E+02  1.00000E+00  6.60170E+03  4.06500E+03  7.96000E+03  9.99900E-01   15    1    1   1     1     11  0.00000E+00
  1   27    1    1  7.91493E+03  7.74186E+03  2.83313E+02  1.00000E+00  6.50854E+03  4.09500E+03  7.76000E+03  9.99900E-01   15    1    1   1     1     11  0.00000E+00
  1   27    1    1  7.91493E+03  7.95395E+03  2.83313E+02  1.00000E+00  6.50854E+03  4.09500E+03  7.96000E+03  9.99900E-01   15    1    1   1     1     11  0.00000E+00
  1   27    1    1  7.91218E+03  7.74232E+03  2.83313E+02  1.00000E+00  6.38575E+03  4.13500E+03  7.76000E+03  9.99900E-01   16    1    1   1     1     11  0.00000E+00
  1   27    1    1  7.91218E+03  7.95411E+03  2.83313E+02  1.00000E+00  6.38575E+03  4.13500E+03  7.96000E+03  9.99900E-01   16    1    1   1     1     11  0.00000E+00
  1   27    1    1  7.90874E+03  7.74288E+03  2.83313E+02  1.00000E+00  6.23442E+03  4.18500E+03  7.76000E+03  9.99900E-01   16    1    1   1     1     11  0.00000E+00
  1   27    1    1  7.90874E+03  7.95429E+03  2.83313E+02  1.00000E+00  6.23442E+03  4.18500E+03  7.96000E+03  9.99900E-01   16    1    1   1     1     11  0.00000E+00
  1   27    1    1  7.90443E+03  7.74357E+03  2.83313E+02  1.00000E+00  6.04872E+03  4.24750E+03  7.76000E+03  9.99900E-01   17    1    1   1     1     11  0.00000E+00
  1   27    1    1  7.90443E+03  7.95452E+03  2.83313E+02  1.00000E+00  6.04872E+03  4.24750E+03  7.96000E+03  9.99900E-01   17    1    1   1     1     11  0.00000E+00
  1   27    1    1  7.89924E+03  7.74438E+03  2.83313E+02  1.00000E+00  5.83061E+03  4.32250E+03  7.76000E+03  9.99900E-01   17    1    1   1     1     11  0.00000E+00
  1   27    1    1  7.89924E+03  7.95479E+03  2.83313E+02  1.00000E+00  5.83061E+03  4.32250E+03  7.96000E+03  9.99900E-01   17    1    1   1     1     11  0.00000E+00
  1   27    1    1  7.89317E+03  7.74529E+03  2.83313E+02  1.00000E+00  5.58274E+03  4.41000E+03  7.76000E+03  9.99900E-01   18    1    1   1     1     11  0.00000E+00
  1   27    1    1  7.89317E+03  7.95510E+03  2.83313E+02  1.00000E+00  5.58274E+03  4.41000E+03  7.96000E+03  9.99900E-01   18    1    1   1     1     11  0.00000E+00
  1   27    1    1  7.88622E+03  7.74630E+03  2.83313E+02  1.00000E+00  5.30764E+03  4.51000E+03  7.76000E+03  9.99900E-01   18    1    1   1     1     11  0.00000E+00
  1   27    1    1  7.88622E+03  7.95543E+03  2.83313E+02  1.00000E+00  5.30764E+03  4.51000E+03  7.96000E+03  9.99900E-01   18    1    1   1     1     11  0.00000E+00
  1   27    1    1  7.87749E+03  7.74749E+03  2.83313E+02  1.00000E+00  4.97609E+03  4.63500E+03  7.76000E+03  9.99900E-01   19    1    1   1     1     11  0.00000E+00
  1   27    1    1  7.87749E+03  7.95583E+03  2.83313E+02  1.00000E+00  4.97609E+03  4.63500E+03  7.96000E+03  9.99900E-01   19    1    1   1     1     11  0.00000E+00
  1   27    1    1  7.86697E+03  7.74883E+03  2.83313E+02  1.00000E+00  4.59481E+03  4.78500E+03  7.76000E+03  9.99900E-01   19    1    1   1     1     11  0.00000E+00
  1   27    1    1  7.86697E+03  7.95628E+03  2.83313E+02  1.00000E+00  4.59481E+03  4.78500E+03  7.96000E+03  9.99900E-01   19    1    1   1     1     11  0.00000E+00
  1   27    1    1  7.85465E+03  7.75027E+03  2.83313E+02  1.00000E+00  4.17259E+03  4.96000E+03  7.76000E+03  9.99900E-01   20    1    1   1     1     11  0.00000E+00
  1   27    1    1  7.85465E+03  7.95675E+03  2.83313E+02  1.00000E+00  4.17259E+03  4.96000E+03  7.96000E+03  9.99900E-01   20    1    1   1     1     11  0.00000E+00
  1   27    1    1  7.84050E+03  7.75177E+03  2.83313E+02  1.00000E+00  3.71758E+03  5.16000E+03  7.76000E+03  9.99900E-01   20    1    1   1     1     11  0.00000E+00
  1   27    1    1  7.84050E+03  7.95726E+03  2.83313E+02  1.00000E+00  3.71758E+03  5.16000E+03  7.96000E+03  9.99900E-01   20    1    1   1     1     11  0.00000E+00
  1   27    1    1  7.82629E+03  7.75310E+03  2.83313E+02  1.00000E+00  3.29033E+03  5.36000E+03  7.76000E+03  9.99900E-01   21    1    1   1     1     11  0.00000E+00
  1   27    1    1  7.82629E+03  7.95770E+03  2.83313E+02  1.00000E+00  3.29033E+03  5.36000E+03  7.96000E+03  9.99900E-01   21    1    1   1     1     11  0.00000E+00
  1   27    1    1  7.81202E+03  7.75429E+03  2.83313E+02  1.00000E+00  2.88997E+03  5.56000E+03  7.76000E+03  9.99900E-01   21    1    1   1     1     11  0.00000E+00
  1   27    1    1  7.81202E+03  7.95810E+03  2.83313E+02  1.00000E+00  2.88997E+03  5.56000E+03  7.96000E+03  9.99900E-01   21    1    1   1     1     11  0.00000E+00
  1   27    1    1  7.79769E+03  7.75533E+03  2.83313E+02  1.00000E+00  2.51458E+03  5.76000E+03  7.76000E+03  9.99900E-01   22    1    1   1     1     11  0.00000E+00
  1   27    1    1  7.79769E+03  7.95844E+03  2.83313E+02  1.00000E+00  2.51458E+03  5.76000E+03  7.96000E+03  9.99900E-01   22    1    1   1     1     11  0.00000E+00
  1   27    1    1  7.78332E+03  7.75623E+03  2.83313E+02  1.00000E+00  2.16348E+03  5.96000E+03  7.76000E+03  9.99900E-01   22    1    1   1     1     11  0.00000E+00
  1   27    1    1  7.78332E+03  7.95874E+03  2.83313E+02  1.00000E+00  2.16348E+03  5.96000E+03  7.96000E+03  9.99900E-01   22    1    1   1     1     11  0.00000E+00
  1   27    1    1  7.76891E+03  7.75702E+03  2.83313E+02  1.00000E+00  1.83498E+03  6.16000E+03  7.76000E+03  9.99900E-01   23    1    1   1     1     11  0.00000E+00
  1   27    1    1  7.76891E+03  7.95901E+03  2.83313E+02  1.00000E+00  1.83498E+03  6.16000E+03  7.96000E+03  9.99900E-01   23    1    1   1     1     11  0.00000E+00
  1   27    1    1  7.75447E+03  7.75769E+03  2.83313E+02  1.00000E+00  1.52852E+03  6.36000E+03  7.76000E+03  9.99900E-01   23    1    1   1     1     11  0.00000E+00
  1   27    1    1  7.75447E+03  7.95923E+03  2.83313E+02  1.00000E+00  1.52852E+03  6.36000E+03  7.96000E+03  9.99900E-01   23    1    1   1     1     11  0.00000E+00
  1   27    1    1  7.73999E+03  7.75826E+03  2.83313E+02  1.00000E+00  1.24260E+03  6.56000E+03  7.76000E+03  9.99900E-01   24    1    1   1     1     11  0.00000E+00
  1   27    1    1  7.73999E+03  7.95942E+03  2.83313E+02  1.00000E+00  1.24260E+03  6.56000E+03  7.96000E+03  9.99900E-01   24    1    1   1     1     11  0.00000E+00
  1   27    1    1  7.72549E+03  7.75874E+03  2.83313E+02  1.00000E+00  9.76710E+02  6.76000E+03  7.76000E+03  9.99900E-01   24    1    1   1     1     11  0.00000E+00
  1   27    1    1  7.72549E+03  7.95958E+03  2.83313E+02  1.00000E+00  9.76710E+02  6.76000E+03  7.96000E+03  9.99900E-01   24    1    1   1     1     11  0.00000E+00
  1   27    1    1  7.71097E+03  7.75913E+03  2.83313E+02  1.00000E+00  7.29508E+02  6.96000E+03  7.76000E+03  9.99900E-01   25    1    1   1     1     11  0.00000E+00
  1   27    1    1  7.71097E+03  7.95971E+03  2.83313E+02  1.00000E+00  7.29508E+02  6.96000E+03  7.96000E+03  9.99900E-01   25    1    1   1     1     11  0.00000E+00
  1   27    1    1  7.69644E+03  7.75945E+03  2.83313E+02  1.00000E+00  5.00537E+02  7.16000E+03  7.76000E+03  9.99900E-01   25    1    1   1     1     11  0.00000E+00
  1   27    1    1  7.69644E+03  7.95982E+03  2.83313E+02  1.00000E+00  5.00537E+02  7.16000E+03  7.96000E+03  9.99900E-01   25    1    1   1     1     11  0.00000E+00
  1   27    1    1  7.68188E+03  7.75971E+03  2.83313E+02  1.00000E+00  2.88595E+02  7.36000E+03  7.76000E+03  9.99900E-01   26    1    1   1     1     11  0.00000E+00
  1   27    1    1  7.68188E+03  7.95990E+03  2.83313E+02  1.00000E+00  2.88595E+02  7.36000E+03  7.96000E+03  9.99900E-01   26    1    1   1     1     11  0.00000E+00
  1   27    1    1  7.66732E+03  7.75991E+03  2.83313E+02  1.00000E+00  9.32468E+01  7.56000E+03  7.76000E+03  9.99900E-01   26    1    1   1     1     11  0.00000E+00
  1   27    1    1  7.66732E+03  7.95997E+03  2.83313E+02  1.00000E+00  9.32468E+01  7.56000E+03  7.96000E+03  9.99900E-01   26    1    1   1     1     11  0.00000E+00
  1   27    1    1  7.76003E+03  7.76000E+03  2.83313E+02  1.00000E+00  3.06811E-02  7.76000E+03  7.76000E+03  9.99900E-01   27    1    1   1     1     11  0.00000E+00
  1   27    1    1  7.76003E+03  7.96000E+03  2.83313E+02  1.00000E+00  3.06811E-02  7.76000E+03  7.96000E+03  9.99900E-01   27    1    1   1     1     11  0.00000E+00
  1   27    1    1  7.96001E+03  7.76000E+03  2.83313E+02  1.00000E+00  3.06811E-02  7.96000E+03  7.76000E+03  9.99900E-01   27    1    1   1     1     11  0.00000E+00
  1   27    1    1  7.96001E+03  7.96000E+03  2.83313E+02  1.00000E+00  3.06811E-02  7.96000E+03  7.96000E+03  9.99900E-01   27    1    1   1     1     11  0.00000E+00
  2   14   14    4  4.04852E+03  4.05000E+03  5.11014E+01  2.20287E-02  1.07373E+05  1.00000E+02  7.36000E+03  9.99900E-01    1    2    1   1     1     11  0.00000E+00
  2   14   14    4  4.05000E+03  4.04525E+03  5.04920E+01  9.83940E-03  1.20095E+05  1.00000E+02  7.56000E+03  9.99900E-01    1    2    1   1     1     11  0.00000E+00
  2   14   14    4  4.05000E+03  4.04687E+03  5.29366E+01  5.87314E-02  8.46777E+04  3.00000E+02  7.36000E+03  9.99900E-01    1    2    1   1     1     11  0.00000E+00
  2   14   14    4  4.05000E+03  4.03709E+03  5.14398E+01  2.87968E-02  1.06022E+05  3.00000E+02  7.56000E+03  9.99900E-01    1    2    1   1     1     11  0.00000E+00
  2   14   14    4  4.05000E+03  4.04473E+03  5.42069E+01  8.41382E-02  7.60756E+04  5.00000E+02  7.36000E+03  9.99900E-01    2    2    1   1     1     11  0.00000E+00
  2   14   14    4  4.05000E+03  4.03001E+03  5.02869E+01  5.73708E-03  2.23397E+05  5.00000E+02  7.56000E+03  9.99900E-01    2    2    1   1     1     11  0.00000E+00
  2   14   14    4  4.05000E+03  4.04113E+03  5.52817E+01  1.05633E-01  7.26955E+04  7.00000E+02  7.36000E+03  9.99900E-01    2    2    1   1     1     11  0.00000E+00
  1   27   10    1  8.05289E+03  4.51367E+03  2.83274E+02  1.00000E+00  1.64615E+05  7.00000E+02  7.56000E+03  9.99900E-01    2    2    1   1     1     11  0.00000E+00
  2   14   14    4  4.05000E+03  4.03672E+03  5.57870E+01  1.15740E-01  7.32525E+04  9.00000E+02  7.36000E+03  9.99900E-01    3    2    1   1     1     11  0.00000E+00
  1   27    8    1  8.05103E+03  4.91203E+03  2.83279E+02  1.00000E+00  1.38220E+05  9.00000E+02  7.56000E+03  9.99900E-01    3    2    1   1     1     11  0.00000E+00
  2   14   14    4  4.05000E+03  4.03191E+03  5.41341E+01  8.26822E-02  9.11825E+04  1.10000E+03  7.36000E+03  9.99900E-01    3    2    1   1     1     11  0.00000E+00
  1   27    7    1  8.04919E+03  5.29949E+03  2.83284E+02  1.00000E+00  1.19470E+05  1.10000E+03  7.56000E+03  9.99900E-01    3    2    1   1     1     11  0.00000E+00
  1   27   10    1  8.04647E+03  4.53639E+03  2.83274E+02  1.00000E+00  1.27751E+05  1.30000E+03  7.36000E+03  9.99900E-01    4    2    1   1     1     11  0.00000E+00
  1   27    6    1  8.04696E+03  5.68297E+03  2.83290E+02  1.00000E+00  1.04033E+05  1.30000E+03  7.56000E+03  9.99900E-01    4    2    1   1     1     11  0.00000E+00
  1   27    8    1  8.04351E+03  5.04307E+03  2.83279E+02  1.00000E+00  1.03416E+05  1.50000E+03  7.36000E+03  9.99900E-01    4    2    1   1     1     11  0.00000E+00
  1   27    6    1  8.04406E+03  5.98314E+03  2.83290E+02  1.00000E+00  9.27344E+04  1.50000E+03  7.56000E+03  9.99900E-01    4    2    1   1     1     11  0.00000E+00
  1   27    7    1  8.04041E+03  5.47134E+03  2.83284E+02  1.00000E+00  8.86150E+04  1.70000E+03  7.36000E+03  9.99900E-01    5    2    1   1     1     11  0.00000E+00
  1   27    5    1  8.04053E+03  6.27652E+03  2.83297E+02  1.00000E+00  8.21253E+04  1.70000E+03  7.56000E+03  9.99900E-01    5    2    1   1     1     11  0.00000E+00
  1   27    6    1  8.03660E+03  5.88628E+03  2.83290E+02  1.00000E+00  7.59859E+04  1.90000E+03  7.36000E+03  9.99900E-01    5    2    1   1     1     11  0.00000E+00
  1   27    4    1  8.03635E+03  6.57086E+03  2.83303E+02  1.00000E+00  7.13770E+04  1.90000E+03  7.56000E+03  9.99900E-01    5    2    1   1     1     11  0.00000E+00
  1   27    5    1  8.03162E+03  6.24790E+03  2.83297E+02  1.00000E+00  6.57487E+04  2.10000E+03  7.36000E+03  9.99900E-01    6    2    1   1     1     11  0.00000E+00
  1   27    4    1  8.03117E+03  6.79193E+03  2.83303E+02  1.00000E+00  6.33279E+04  2.10000E+03  7.56000E+03  9.99900E-01    6    2    1   1     1     11  0.00000E+00
  1   27    4    1  8.02552E+03  6.54765E+03  2.83303E+02  1.00000E+00  5.59751E+04  2.30000E+03  7.36000E+03  9.99900E-01    6    2    1   1     1     11  0.00000E+00
  1   27    3    1  8.02485E+03  6.99731E+03  2.83308E+02  1.00000E+00  5.43359E+04  2.30000E+03  7.56000E+03  9.99900E-01    6    2    1   1     1     11  0.00000E+00
  1   27    4    1  8.01795E+03  6.83033E+03  2.83303E+02  1.00000E+00  4.53610E+04  2.50000E+03  7.36000E+03  9.99900E-01    7    2    1   1     1     11  0.00000E+00
  1   27    3    1  8.01714E+03  7.18831E+03  2.83308E+02  1.00000E+00  4.59951E+04  2.50000E+03  7.56000E+03  9.99900E-01    7    2    1   1     1     11  0.00000E+00
  1   27    3    1  8.00837E+03  7.05627E+03  2.83308E+02  1.00000E+00  3.78738E+04  2.70000E+03  7.36000E+03  9.99900E-01    7    2    1   1     1     11  0.00000E+00
  1   27    2    1  8.00786E+03  7.34607E+03  2.83311E+02  1.00000E+00  3.72800E+04  2.70000E+03  7.56000E+03  9.99900E-01    7    2    1   1     1     11  0.00000E+00
  1   27    2    1  7.99582E+03  7.28074E+03  2.83311E+02  1.00000E+00  1.10720E+04  2.90000E+03  7.36000E+03  9.99900E-01    8    2    1   1     1     11  0.00000E+00
  1   27    2    1  7.99582E+03  7.50284E+03  2.83311E+02  1.00000E+00  1.10720E+04  2.90000E+03  7.56000E+03  9.99900E-01    8    2    1   1     1     11  0.00000E+00
  1   27    2    1  7.98263E+03  7.28784E+03  2.83311E+02  1.00000E+00  1.01655E+04  3.10000E+03  7.36000E+03  9.99900E-01    8    2    1   1     1     11  0.00000E+00
  1   27    2    1  7.98263E+03  7.50797E+03  2.83311E+02  1.00000E+00  1.01655E+04  3.10000E+03  7.56000E+03  9.99900E-01    8    2    1   1     1     11  0.00000E+00
  1   27    2    1  7.97099E+03  7.29377E+03  2.83311E+02  1.00000E+00  9.42716E+03  3.27500E+03  7.36000E+03  9.99900E-01    9    2    1   1     1     11  0.00000E+00
  1   27    2    1  7.97099E+03  7.51224E+03  2.83311E+02  1.00000E+00  9.42716E+03  3.27500E+03  7.56000E+03  9.99900E-01    9    2    1   1     1     11  0.00000E+00
  1   27    2    1  7.96095E+03  7.29871E+03  2.83311E+02  1.00000E+00  8.83147E+03  3.42500E+03  7.36000E+03  9.99900E-01    9    2    1   1     1     11  0.00000E+00
  1   27    2    1  7.96095E+03  7.51580E+03  2.83311E+02  1.00000E+00  8.83147E+03  3.42500E+03  7.56000E+03  9.99900E-01    9    2    1   1     1     11  0.00000E+00
  1   27    2    1  7.95253E+03  7.30268E+03  2.83311E+02  1.00000E+00  8.35820E+03  3.55000E+03  7.36000E+03  9.99900E-01   10    2    1   1     1     11  0.00000E+00
  1   27    2    1  7.95253E+03  7.51866E+03  2.83311E+02  1.00000E+00  8.35820E+03  3.55000E+03  7.56000E+03  9.99900E-01   10    2    1   1     1     11  0.00000E+00
  1   27    2    1  7.94576E+03  7.30577E+03  2.83311E+02  1.00000E+00  7.99428E+03  3.65000E+03  7.36000E+03  9.99900E-01   10    2    1   1     1     11  0.00000E+00
  1   27    2    1  7.94576E+03  7.52089E+03  2.83311E+02  1.00000E+00  7.99428E+03  3.65000E+03  7.56000E+03  9.99900E-01   10    2    1   1     1     11  0.00000E+00
  1   27    2    1  7.93982E+03  7.30841E+03  2.83311E+02  1.00000E+00  7.68564E+03  3.73750E+03  7.36000E+03  9.99900E-01   11    2    1   1     1     11  0.00000E+00
  1   27    2    1  7.93982E+03  7.52279E+03  2.83311E+02  1.00000E+00  7.68564E+03  3.73750E+03  7.56000E+03  9.99900E-01   11    2    1   1     1     11  0.00000E+00
  1   27    2    1  7.93471E+03  7.31062E+03  2.83311E+02  1.00000E+00  7.42830E+03  3.81250E+03  7.36000E+03  9.99900E-01   11    2    1   1     1     11  0.00000E+00
  1   27    2    1  7.93471E+03  7.52438E+03  2.83311E+02  1.00000E+00  7.42830E+03  3.81250E+03  7.56000E+03  9.99900E-01   11    2    1   1     1     11  0.00000E+00
  1   27    2    1  7.93045E+03  7.31242E+03  2.83311E+02  1.00000E+00  7.21856E+03  3.87500E+03  7.36000E+03  9.99900E-01   12    2    1   1     1     11  0.00000E+00
  1   27    2    1  7.93045E+03  7.52568E+03  2.83311E+02  1.00000E+00  7.21856E+03  3.87500E+03  7.56000E+03  9.99900E-01   12    2    1   1     1     11  0.00000E+00
  1   27    2    1  7.92702E+03  7.31384E+03  2.83311E+02  1.00000E+00  7.05391E+03  3.92500E+03  7.36000E+03  9.99900E-01   12    2    1   1     1     11  0.00000E+00
  1   27    2    1  7.92702E+03  7.52670E+03  2.83311E+02  1.00000E+00  7.05391E+03  3.92500E+03  7.56000E+03  9.99900E-01   12    2    1   1     1     11  0.00000E+00
  1   27    2    1  7.92428E+03  7.31496E+03  2.83311E+02  1.00000E+00  6.92405E+03  3.96500E+03  7.36000E+03  9.99900E-01   13    2    1   1     1     11  0.00000E+00
  1   27    2    1  7.92428E+03  7.52750E+03  2.83311E+02  1.00000E+00  6.92405E+03  3.96500E+03  7.56000E+03  9.99900E-01   13    2    1   1     1     11  0.00000E+00
  1   27    2    1  7.92222E+03  7.31578E+03  2.83311E+02  1.00000E+00  6.82780E+03  3.99500E+03  7.36000E+03  9.99900E-01   13    2    1   1     1     11  0.00000E+00
  1   27    2    1  7.92222E+03  7.52810E+03  2.83311E+02  1.00000E+00  6.82780E+03  3.99500E+03  7.56000E+03  9.99900E-01   13    2    1   1     1     11  0.00000E+00
  1   27    2    1  7.92050E+03  7.31647E+03  2.83311E+02  1.00000E+00  6.74828E+03  4.02000E+03  7.36000E+03  9.99900E-01   14    2    1   1     1     11  0.00000E+00
  1   27    2    1  7.92050E+03  7.52859E+03  2.83311E+02  1.00000E+00  6.74828E+03  4.02000E+03  7.56000E+03  9.99900E-01   14    2    1   1     1     11  0.00000E+00
  1   27    2    1  7.91913E+03  7.31701E+03  2.83311E+02  1.00000E+00  6.68514E+03  4.04000E+03  7.36000E+03  9.99900E-01   14    2    1   1     1     11  0.00000E+00
  1   27    2    1  7.91913E+03  7.52899E+03  2.83311E+02  1.00000E+00  6.68514E+03  4.04000E+03  7.56000E+03  9.99900E-01   14    2    1   1     1     11  0.00000E+00
  1   27    2    1  7.91741E+03  7.31769E+03  2.83311E+02  1.00000E+00  6.60680E+03  4.06500E+03  7.36000E+03  9.99900E-01   15    2    1   1     1     11  0.00000E+00
  1   27    2    1  7.91741E+03  7.52947E+03  2.83311E+02  1.00000E+00  6.60680E+03  4.06500E+03  7.56000E+03  9.99900E-01   15    2    1   1     1     11  0.00000E+00
  1   27    2    1  7.91534E+03  7.31849E+03  2.83311E+02  1.00000E+00  6.51360E+03  4.09500E+03  7.36000E+03  9.99900E-01   15    2    1   1     1     11  0.00000E+00
  1   27    2    1  7.91534E+03  7.53005E+03  2.83311E+02  1.00000E+00  6.51360E+03  4.09500E+03  7.56000E+03  9.99900E-01   15    2    1   1     1     11  0.00000E+00
  1   27    2    1  7.91258E+03  7.31954E+03  2.83311E+02  1.00000E+00  6.39077E+03  4.13500E+03  7.36000E+03  9.99900E-01   16    2    1   1     1     11  0.00000E+00
  1   27    2    1  7.91258E+03  7.53081E+03  2.83311E+02  1.00000E+00  6.39077E+03  4.13500E+03  7.56000E+03  9.99900E-01   16    2    1   1     1     11  0.00000E+00
  1   27    2    1  7.90913E+03  7.32084E+03  2.83311E+02  1.00000E+00  6.23937E+03  4.18500E+03  7.36000E+03  9.99900E-01   16    2    1   1     1     11  0.00000E+00
  1   27    2    1  7.90913E+03  7.53174E+03  2.83311E+02  1.00000E+00  6.23937E+03  4.18500E+03  7.56000E+03  9.99900E-01   16    2    1   1     1     11  0.00000E+00
  1   27    2    1  7.90480E+03  7.32243E+03  2.83311E+02  1.00000E+00  6.05358E+03  4.24750E+03  7.36000E+03  9.99900E-01   17    2    1   1     1     11  0.00000E+00
  1   27    2    1  7.90480E+03  7.53288E+03  2.83311E+02  1.00000E+00  6.05358E+03  4.24750E+03  7.56000E+03  9.99900E-01   17    2    1   1     1     11  0.00000E+00
  1   27    2    1  7.89960E+03  7.32428E+03  2.83311E+02  1.00000E+00  5.83535E+03  4.32250E+03  7.36000E+03  9.99900E-01   17    2    1   1     1     11  0.00000E+00
  1   27    2    1  7.89960E+03  7.53422E+03  2.83311E+02  1.00000E+00  5.83535E+03  4.32250E+03  7.56000E+03  9.99900E-01   17    2    1   1     1     11  0.00000E+00
  1   27    2    1  7.89351E+03  7.32637E+03  2.83311E+02  1.00000E+00  5.58734E+03  4.41000E+03  7.36000E+03  9.99900E-01   18    2    1   1     1     11  0.00000E+00