@ [ MODPATH Version 4.00 (V4, Release 1, 2-2000) [PC] (TREF=   0.000000E+00 ) ]
  2   14   14    4  4.05000E+03  4.03000E+03  9.35353E+01  8.70705E-01  1.22480E+04  2.81250E+03  4.03000E+03  9.99900E-01    8   14    1   1     1     11  0.00000E+00
  2   14   14    4  4.05000E+03  4.03000E+03  9.27655E+01  8.55309E-01  1.26300E+04  2.83750E+03  4.03000E+03  9.99900E-01    8   14    1   1     1     11  0.00000E+00
  2   14   14    4  4.05000E+03  4.03000E+03  9.19164E+01  8.38328E-01  1.30674E+04  2.86250E+03  4.03000E+03  9.99900E-01    8   14    1   1     1     11  0.00000E+00
  2   14   14    4  4.05000E+03  4.03000E+03  9.09636E+01  8.19271E-01  1.33685E+04  2.88750E+03  4.03000E+03  9.99900E-01    8   14    1   1     1     11  0.00000E+00
  2   14   14    4  4.05000E+03  4.03000E+03  8.99259E+01  7.98518E-01  1.44920E+04  2.91250E+03  4.03000E+03  9.99900E-01    8   14    1   1     1     11  0.00000E+00
  2   14   14    4  4.05000E+03  4.03000E+03  8.87949E+01  7.75897E-01  1.52143E+04  2.93750E+03  4.03000E+03  9.99900E-01    8   14    1   1     1     11  0.00000E+00
  2   14   14    4  4.05000E+03  4.03000E+03  8.75421E+01  7.50842E-01  1.60598E+04  2.96250E+03  4.03000E+03  9.99900E-01    8   14    1   1     1     11  0.00000E+00
  2   14   14    4  4.05000E+03  4.03000E+03  8.61599E+01  7.23198E-01  1.71314E+04  2.98750E+03  4.03000E+03  9.99900E-01    8   14    1   1     1     11  0.00000E+00
  2   14   14    4  4.05000E+03  4.03000E+03  8.45612E+01  6.91223E-01  1.81638E+04  3.01250E+03  4.03000E+03  9.99900E-01    8   14    1   1     1     11  0.00000E+00
  1   19   14    3  4.69658E+03  4.02996E+03  1.12752E+02  2.55036E-01  1.82500E+04  3.03750E+03  4.03000E+03  9.99900E-01    8   14    1   1     1     10  0.00000E+00
  1   20   14    3  5.09816E+03  4.02994E+03  1.42853E+02  8.57067E-01  1.82500E+04  3.06250E+03  4.03000E+03  9.99900E-01    8   14    1   1     1     10  0.00000E+00
  1   21   14    2  5.30115E+03  4.02992E+03  1.61588E+02  2.31765E-01  1.82500E+04  3.08750E+03  4.03000E+03  9.99900E-01    8   14    1   1     1     10  0.00000E+00
  1   21   14    2  5.46416E+03  4.02993E+03  1.61988E+02  2.39752E-01  1.82500E+04  3.11250E+03  4.03000E+03  9.99900E-01    8   14    1   1     1     10  0.00000E+00
  1   21   14    2  5.62532E+03  4.02993E+03  1.62369E+02  2.47375E-01  1.82500E+04  3.13750E+03  4.03000E+03  9.99900E-01    8   14    1   1     1     10  0.00000E+00
  1   22   14    2  5.72770E+03  4.02992E+03  1.86608E+02  7.32168E-01  1.82500E+04  3.16250E+03  4.03000E+03  9.99900E-01    8   14    1   1     1     10  0.00000E+00
  1   22   14    2  5.91965E+03  4.02992E+03  1.87110E+02  7.42195E-01  1.82500E+04  3.18750E+03  4.03000E+03  9.99900E-01    8   14    1   1     1     10  0.00000E+00
  1   23   14    2  6.08493E+03  4.02993E+03  1.89099E+02  7.81990E-01  1.82500E+04  3.20938E+03  4.03000E+03  9.99900E-01    9   14    1   1     1     10  0.00000E+00
  1   23   14    1  6.07593E+03  4.02992E+03  2.12137E+02 -3.93164E-01  1.82500E+04  3.22813E+03  4.03000E+03  9.99900E-01    9   14    1   1     1     10  0.00000E+00
  1   27   14    1  8.00513E+03  4.02995E+03  2.83272E+02  1.00000E+00  9.76690E+03  3.24688E+03  4.03000E+03  9.99900E-01    9   14    1   1     1     11  0.00000E+00
  1   27   14    1  8.00345E+03  4.02995E+03  2.83272E+02  1.00000E+00  9.68843E+03  3.26563E+03  4.03000E+03  9.99900E-01    9   14    1   1     1     11  0.00000E+00
  1   27   14    1  8.00177E+03  4.02996E+03  2.83272E+02  1.00000E+00  9.61063E+03  3.28438E+03  4.03000E+03  9.99900E-01    9   14    1   1     1     11  0.00000E+00
  1   27   14    1  8.00009E+03  4.02996E+03  2.83272E+02  1.00000E+00  9.53346E+03  3.30313E+03  4.03000E+03  9.99900E-01    9   14    1   1     1     11  0.00000E+00
  1   27   14    1  7.99841E+03  4.02996E+03  2.83272E+02  1.00000E+00  9.45691E+03  3.32188E+03  4.03000E+03  9.99900E-01    9   14    1   1     1     11  0.00000E+00
  1   27   14    1  7.99674E+03  4.02996E+03  2.83272E+02  1.00000E+00  9.38096E+03  3.34063E+03  4.03000E+03  9.99900E-01    9   14    1   1     1     11  0.00000E+00
  1   27   14    1  7.99507E+03  4.02997E+03  2.83272E+02  1.00000E+00  9.30559E+03  3.35938E+03  4.03000E+03  9.99900E-01    9   14    1   1     1     11  0.00000E+00
  1   27   14    1  7.99340E+03  4.02997E+03  2.83272E+02  1.00000E+00  9.23079E+03  3.37813E+03  4.03000E+03  9.99900E-01    9   14    1   1     1     11  0.00000E+00
  1   27   14    1  7.99174E+03  4.02997E+03  2.83272E+02  1.00000E+00  9.15654E+03  3.39688E+03  4.03000E+03  9.99900E-01    9   14    1   1     1     11  0.00000E+00
  1   27   14    1  7.99008E+03  4.02997E+03  2.83272E+02  1.00000E+00  9.08282E+03  3.41563E+03  4.03000E+03  9.99900E-01    9   14    1   1     1     11  0.00000E+00
  1   27   14    1  7.98842E+03  4.02998E+03  2.83272E+02  1.00000E+00  9.00963E+03  3.43438E+03  4.03000E+03  9.99900E-01    9   14    1   1     1     11  0.00000E+00
  1   27   14    1  7.98676E+03  4.02998E+03  2.83272E+02  1.00000E+00  8.93695E+03  3.45313E+03  4.03000E+03  9.99900E-01    9   14    1   1     1     11  0.00000E+00
  1   27   14    1  7.98511E+03  4.02998E+03  2.83272E+02  1.00000E+00  8.86477E+03  3.47188E+03  4.03000E+03  9.99900E-01    9   14    1   1     1     11  0.00000E+00
  1   27   14    1  7.98346E+03  4.02999E+03  2.83272E+02  1.00000E+00  8.79307E+03  3.49063E+03  4.03000E+03  9.99900E-01    9   14    1   1     1     11  0.00000E+00
  2   14   14    4  4.05000E+03  4.03000E+03  9.35352E+01  8.70705E-01  1.24305E+04  2.81250E+03  4.03000E+03  9.99900E-01    8   14    1   1     1     11  1.82500E+02
  2   14   14    4  4.05000E+03  4.03000E+03  9.27655E+01  8.55309E-01  1.28125E+04  2.83750E+03  4.03000E+03  9.99900E-01    8   14    1   1     1     11  1.82500E+02
  2   14   14    4  4.05000E+03  4.03000E+03  9.19165E+01  8.38329E-01  1.32498E+04  2.86250E+03  4.03000E+03  9.99900E-01    8   14    1   1     1     11  1.82500E+02
  2   14   14    4  4.05000E+03  4.03000E+03  9.09635E+01  8.19270E-01  1.35510E+04  2.88750E+03  4.03000E+03  9.99900E-01    8   14    1   1     1     11  1.82500E+02
  2   14   14    4  4.05000E+03  4.03000E+03  8.99259E+01  7.98518E-01  1.46745E+04  2.91250E+03  4.03000E+03  9.99900E-01    8   14    1   1     1     11  1.82500E+02
  2   14   14    4  4.05000E+03  4.03000E+03  8.87949E+01  7.75897E-01  1.53968E+04  2.93750E+03  4.03000E+03  9.99900E-01    8   14    1   1     1     11  1.82500E+02
  2   14   14    4  4.05000E+03  4.03000E+03  8.75422E+01  7.50844E-01  1.62422E+04  2.96250E+03  4.03000E+03  9.99900E-01    8   14    1   1     1     11  1.82500E+02
  2   14   14    4  4.05000E+03  4.03000E+03  8.61599E+01  7.23198E-01  1.73139E+04  2.98750E+03  4.03000E+03  9.99900E-01    8   14    1   1     1     11  1.82500E+02
  1   18   14    4  4.37582E+03  4.02998E+03  9.35073E+01  8.70146E-01  1.82500E+04  3.01250E+03  4.03000E+03  9.99900E-01    8   14    1   1     1     10  1.82500E+02
  1   19   14    3  4.72863E+03  4.02996E+03  1.16433E+02  3.28650E-01  1.82500E+04  3.03750E+03  4.03000E+03  9.99900E-01    8   14    1   1     1     10  1.82500E+02
  1   20   14    3  5.11206E+03  4.02994E+03  1.44523E+02  8.90457E-01  1.82500E+04  3.06250E+03  4.03000E+03  9.99900E-01    8   14    1   1     1     10  1.82500E+02
  1   21   14    2  5.30409E+03  4.02992E+03  1.62498E+02  2.49952E-01  1.82500E+04  3.08750E+03  4.03000E+03  9.99900E-01    8   14    1   1     1     10  1.82500E+02
  1   21   14    2  5.46477E+03  4.02993E+03  1.62897E+02  2.57941E-01  1.82500E+04  3.11250E+03  4.03000E+03  9.99900E-01    8   14    1   1     1     10  1.82500E+02
  1   21   14    2  5.62364E+03  4.02993E+03  1.63278E+02  2.65566E-01  1.82500E+04  3.13750E+03  4.03000E+03  9.99900E-01    8   14    1   1     1     10  1.82500E+02
  1   22   14    2  5.72485E+03  4.02992E+03  1.87125E+02  7.42500E-01  1.82500E+04  3.16250E+03  4.03000E+03  9.99900E-01    8   14    1   1     1     10  1.82500E+02
  1   22   14    2  5.91489E+03  4.02992E+03  1.87627E+02  7.52544E-01  1.82500E+04  3.18750E+03  4.03000E+03  9.99900E-01    8   14    1   1     1     10  1.82500E+02
  1   23   14    2  6.07860E+03  4.02993E+03  1.89222E+02  7.84440E-01  1.82500E+04  3.20938E+03  4.03000E+03  9.99900E-01    9   14    1   1     1     10  1.82500E+02
  1   23   14    1  6.07593E+03  4.02992E+03  2.12268E+02 -3.86621E-01  1.82500E+04  3.22813E+03  4.03000E+03  9.99900E-01    9   14    1   1     1     10  1.82500E+02
  1   27   14    1  8.00513E+03  4.02995E+03  2.83272E+02  1.00000E+00  9.94940E+03  3.24688E+03  4.03000E+03  9.99900E-01    9   14    1   1     1     11  1.82500E+02
  1   27   14    1  8.00345E+03  4.02995E+03  2.83272E+02  1.00000E+00  9.87093E+03  3.26563E+03  4.03000E+03  9.99900E-01    9   14    1   1     1     11  1.82500E+02
  1   27   14    1  8.00177E+03  4.02996E+03  2.83272E+02  1.00000E+00  9.79313E+03  3.28438E+03  4.03000E+03  9.99900E-01    9   14    1   1     1     11  1.82500E+02
  1   27   14    1  8.00009E+03  4.02996E+03  2.83272E+02  1.00000E+00  9.71596E+03  3.30313E+03  4.03000E+03  9.99900E-01    9   14    1   1     1     11  1.82500E+02
  1   27   14    1  7.99841E+03  4.02996E+03  2.83272E+02  1.00000E+00  9.63941E+03  3.32188E+03  4.03000E+03  9.99900E-01    9   14    1   1     1     11  1.82500E+02
  1   27   14    1  7.99674E+03  4.02996E+03  2.83272E+02  1.00000E+00  9.56346E+03  3.34063E+03  4.03000E+03  9.99900E-01    9   14    1   1     1     11  1.82500E+02
  1   27   14    1  7.99507E+03  4.02997E+03  2.83272E+02  1.00000E+00  9.48809E+03  3.35938E+03  4.03000E+03  9.99900E-01    9   14    1   1     1     11  1.82500E+02
  1   27   14    1  7.99340E+03  4.02997E+03  2.83272E+02  1.00000E+00  9.41329E+03  3.37813E+03  4.03000E+03  9.99900E-01    9   14    1   1     1     11  1.82500E+02
  1   27   14    1  7.99174E+03  4.02997E+03  2.83272E+02  1.00000E+00  9.33904E+03  3.39688E+03  4.03000E+03  9.99900E-01    9   14    1   1     1     11  1.82500E+02
  1   27   14    1  7.99008E+03  4.02997E+03  2.83272E+02  1.00000E+00  9.26532E+03  3.41563E+03  4.03000E+03  9.99900E-01    9   14    1   1     1     11  1.82500E+02
  1   27   14    1  7.98842E+03  4.02998E+03  2.83272E+02  1.00000E+00  9.19213E+03  3.43438E+03  4.03000E+03  9.99900E-01    9   14    1   1     1     11  1.82500E+02
  1   27   14    1  7.98676E+03  4.02998E+03  2.83272E+02  1.00000E+00  9.11945E+03  3.45313E+03  4.03000E+03  9.99900E-01    9   14    1   1     1     11  1.82500E+02
  1   27   14    1  7.98511E+03  4.02998E+03  2.83272E+02  1.00000E+00  9.04727E+03  3.47188E+03  4.03000E+03  9.99900E-01    9   14    1   1     1     11  1.82500E+02
  1   27   14    1  7.98346E+03  4.02999E+03  2.83272E+02  1.00000E+00  8.97557E+03  3.49063E+03  4.03000E+03  9.99900E-01    9   14    1   1     1     11  1.82500E+02
  2   14   14    4  4.05000E+03  4.03000E+03  9.35353E+01  8.70706E-01  1.26130E+04  2.81250E+03  4.03000E+03  9.99900E-01    8   14    1   1     1     11  3.65000E+02
  2   14   14    4  4.05000E+03  4.03000E+03  9.27655E+01  8.55309E-01  1.29950E+04  2.83750E+03  4.03000E+03  9.99900E-01    8   14    1   1     1     11  3.65000E+02
  2   14   14    4  4.05000E+03  4.03000E+03  9.19164E+01  8.38328E-01  1.34324E+04  2.86250E+03  4.03000E+03  9.99900E-01    8   14    1   1     1     11  3.65000E+02
  2   14   14    4  4.05000E+03  4.03000E+03  9.09635E+01  8.19270E-01  1.37335E+04  2.88750E+03  4.03000E+03  9.99900E-01    8   14    1   1     1     11  3.65000E+02
  2   14   14    4  4.05000E+03  4.03000E+03  8.99259E+01  7.98518E-01  1.48570E+04  2.91250E+03  4.03000E+03  9.99900E-01    8   14    1   1     1     11  3.65000E+02
  2   14   14    4  4.05000E+03  4.03000E+03  8.87949E+01  7.75898E-01  1.55793E+04  2.93750E+03  4.03000E+03  9.99900E-01    8   14    1   1     1     11  3.65000E+02
  2   14   14    4  4.05000E+03  4.03000E+03  8.75421E+01  7.50842E-01  1.64248E+04  2.96250E+03  4.03000E+03  9.99900E-01    8   14    1   1     1     11  3.65000E+02
  2   14   14    4  4.05000E+03  4.03000E+03  8.61598E+01  7.23196E-01  1.74965E+04  2.98750E+03  4.03000E+03  9.99900E-01    8   14    1   1     1     11  3.65000E+02
  1   18   14    3  4.52361E+03  4.02997E+03  1.02543E+02  5.08603E-02  1.82500E+04  3.01250E+03  4.03000E+03  9.99900E-01    8   14    1   1     1     10  3.65000E+02
  1   19   14    3  4.75867E+03  4.02996E+03  1.20081E+02  4.01620E-01  1.82500E+04  3.03750E+03  4.03000E+03  9.99900E-01    8   14    1   1     1     10  3.65000E+02
  1   20   14    3  5.12546E+03  4.02993E+03  1.46197E+02  9.23936E-01  1.82500E+04  3.06250E+03  4.03000E+03  9.99900E-01    8   14    1   1     1     10  3.65000E+02
  1   21   14    2  5.30698E+03  4.02992E+03  1.63407E+02  2.68144E-01  1.82500E+04  3.08750E+03  4.03000E+03  9.99900E-01    8   14    1   1     1     10  3.65000E+02
  1   21   14    2  5.46538E+03  4.02993E+03  1.63807E+02  2.76133E-01  1.82500E+04  3.11250E+03  4.03000E+03  9.99900E-01    8   14    1   1     1     10  3.65000E+02
  1   21   14    2  5.62199E+03  4.02993E+03  1.64188E+02  2.83760E-01  1.82500E+04  3.13750E+03  4.03000E+03  9.99900E-01    8   14    1   1     1     10  3.65000E+02
  1   22   14    2  5.72203E+03  4.02992E+03  1.87643E+02  7.52850E-01  1.82500E+04  3.16250E+03  4.03000E+03  9.99900E-01    8   14    1   1     1     10  3.65000E+02
  1   22   14    2  5.91017E+03  4.02992E+03  1.88145E+02  7.62910E-01  1.82500E+04  3.18750E+03  4.03000E+03  9.99900E-01    8   14    1   1     1     10  3.65000E+02
  1   23   14    2  6.07230E+03  4.02993E+03  1.89344E+02  7.86887E-01  1.82500E+04  3.20938E+03  4.03000E+03  9.99900E-01    9   14    1   1     1     10  3.65000E+02
  1   23   14    1  6.07593E+03  4.02992E+03  2.12398E+02 -3.80077E-01  1.82500E+04  3.22813E+03  4.03000E+03  9.99900E-01    9   14    1   1     1     10  3.65000E+02
  1   27   14    1  8.00513E+03  4.02995E+03  2.83272E+02  1.00000E+00  1.01319E+04  3.24688E+03  4.03000E+03  9.99900E-01    9   14    1   1     1     11  3.65000E+02
  1   27   14    1  8.00345E+03  4.02995E+03  2.83272E+02  1.00000E+00  1.00534E+04  3.26563E+03  4.03000E+03  9.99900E-01    9   14    1   1     1     11  3.65000E+02
  1   27   14    1  8.00177E+03  4.02996E+03  2.83272E+02  1.00000E+00  9.97563E+03  3.28438E+03  4.03000E+03  9.99900E-01    9   14    1   1     1     11  3.65000E+02
  1   27   14    1  8.00009E+03  4.02996E+03  2.83272E+02  1.00000E+00  9.89846E+03  3.30313E+03  4.03000E+03  9.99900E-01    9   14    1   1     1     11  3.65000E+02
  1   27   14    1  7.99841E+03  4.02996E+03  2.83272E+02  1.00000E+00  9.82191E+03  3.32188E+03  4.03000E+03  9.99900E-01    9   14    1   1     1     11  3.65000E+02
  1   27   14    1  7.99674E+03  4.02996E+03  2.83272E+02  1.00000E+00  9.74596E+03  3.34063E+03  4.03000E+03  9.99900E-01    9   14    1   1     1     11  3.65000E+02
  1   27   14    1  7.99507E+03  4.02997E+03  2.83272E+02  1.00000E+00  9.67059E+03  3.35938E+03  4.03000E+03  9.99900E-01    9   14    1   1     1     11  3.65000E+02
  1   27   14    1  7.99340E+03  4.02997E+03  2.83272E+02  1.00000E+00  9.59579E+03  3.37813E+03  4.03000E+03  9.99900E-01    9   14    1   1     1     11  3.65000E+02
  1   27   14    1  7.99174E+03  4.02997E+03  2.83272E+02  1.00000E+00  9.52154E+03  3.39688E+03  4.03000E+03  9.99900E-01    9   14    1   1     1     11  3.65000E+02
  1   27   14    1  7.99008E+03  4.02997E+03  2.83272E+02  1.00000E+00  9.44782E+03  3.41563E+03  4.03000E+03  9.99900E-01    9   14    1   1     1     11  3.65000E+02
  1   27   14    1  7.98842E+03  4.02998E+03  2.83272E+02  1.00000E+00  9.37463E+03  3.43438E+03  4.03000E+03  9.99900E-01    9   14    1   1     1     11  3.65000E+02
  1   27   14    1  7.98676E+03  4.02998E+03  2.83272E+02  1.00000E+00  9.30195E+03  3.45313E+03  4.03000E+03  9.99900E-01    9   14    1   1     1     11  3.65000E+02
  1   27   14    1  7.98511E+03  4.02998E+03  2.83272E+02  1.00000E+00  9.22977E+03  3.47188E+03  4.03000E+03  9.99900E-01    9   14    1   1     1     11  3.65000E+02
  1   27   14    1  7.98346E+03  4.02999E+03  2.83272E+02  1.00000E+00  9.15807E+03  3.49063E+03  4.03000E+03  9.99900E-01    9   14    1   1     1     11  3.65000E+02
  2   14   14    4  4.05000E+03  4.03000E+03  9.35353E+01  8.70706E-01  1.27955E+04  2.81250E+03  4.03000E+03  9.99900E-01    8   14    1   1     1     11  5.47500E+02
  2   14   14    4  4.05000E+03  4.03000E+03  9.27655E+01  8.55309E-01  1.31775E+04  2.83750E+03  4.03000E+03  9.99900E-01    8   14    1   1     1     11  5.47500E+02
  2   14   14    4  4.05000E+03  4.03000E+03  9.19164E+01  8.38329E-01  1.36148E+04  2.86250E+03  4.03000E+03  9.99900E-01    8   14    1   1     1     11  5.47500E+02
  2   14   14    4  4.05000E+03  4.03000E+03  9.09635E+01  8.19270E-01  1.39160E+04  2.88750E+03  4.03000E+03  9.99900E-01    8   14    1   1     1     11  5.47500E+02
  2   14   14    4  4.05000E+03  4.03000E+03  8.99259E+01  7.98518E-01  1.50395E+04  2.91250E+03  4.03000E+03  9.99900E-01    8   14    1   1     1     11  5.47500E+02
  2   14   14    4  4.05000E+03  4.03000E+03  8.87948E+01  7.75897E-01  1.57618E+04  2.93750E+03  4.03000E+03  9.99900E-01    8   14    1   1     1     11  5.47500E+02
  2   14   14    4  4.05000E+03  4.03000E+03  8.75421E+01  7.50843E-01  1.66073E+04  2.96250E+03  4.03000E+03  9.99900E-01    8   14    1   1     1     11  5.47500E+02
  2   14   14    4  4.05000E+03  4.03000E+03  8.61599E+01  7.23197E-01  1.76789E+04  2.98750E+03  4.03000E+03  9.99900E-01    8   14    1   1     1     11  5.47500E+02
  1   19   14    3  4.56691E+03  4.02996E+03  1.10944E+02  2.18878E-01  1.82500E+04  3.01250E+03  4.03000E+03  9.99900E-01    8   14    1   1     1     10  5.47500E+02
  1   19   14    3  4.78684E+03  4.02995E+03  1.23699E+02  4.73976E-01  1.82500E+04  3.03750E+03  4.03000E+03  9.99900E-01    8   14    1   1     1     10  5.47500E+02
  1   20   14    3  5.13841E+03  4.02993E+03  1.47877E+02  9.57530E-01  1.82500E+04  3.06250E+03  4.03000E+03  9.99900E-01    8   14    1   1     1     10  5.47500E+02
  1   21   14    2  5.30983E+03  4.02992E+03  1.64317E+02  2.86339E-01  1.82500E+04  3.08750E+03  4.03000E+03  9.99900E-01    8   14    1   1     1     10  5.47500E+02
  1   21   14    2  5.46598E+03  4.02993E+03  1.64716E+02  2.94329E-01  1.82500E+04  3.11250E+03  4.03000E+03  9.99900E-01    8   14    1   1     1     10  5.47500E+02
  1   21   14    2  5.62036E+03  4.02993E+03  1.65098E+02  3.01957E-01  1.82500E+04  3.13750E+03  4.03000E+03  9.99900E-01    8   14    1   1     1     10  5.47500E+02
  1   22   14    2  5.71924E+03  4.02992E+03  1.88161E+02  7.63216E-01  1.82500E+04  3.16250E+03  4.03000E+03  9.99900E-01    8   14    1   1     1     10  5.47500E+02
  1   22   14    2  5.90550E+03  4.02992E+03  1.88665E+02  7.73292E-01  1.82500E+04  3.18750E+03  4.03000E+03  9.99900E-01    8   14    1   1     1     10  5.47500E+02
  1   23   14    2  6.06605E+03  4.02993E+03  1.89467E+02  7.89349E-01  1.82500E+04  3.20938E+03  4.03000E+03  9.99900E-01    9   14    1   1     1     10  5.47500E+02
  1   23   14    1  6.07590E+03  4.02992E+03  2.12529E+02 -3.73536E-01  1.82500E+04  3.22813E+03  4.03000E+03  9.99900E-01    9   14    1   1     1     10  5.47500E+02
  1   27   14    1  8.00513E+03  4.02995E+03  2.83272E+02  1.00000E+00  1.03144E+04  3.24688E+03  4.03000E+03  9.99900E-01    9   14    1   1     1     11  5.47500E+02
  1   27   14    1  8.00345E+03  4.02995E+03  2.83272E+02  1.00000E+00  1.02359E+04  3.26563E+03  4.03000E+03  9.99900E-01    9   14    1   1     1     11  5.47500E+02
  1   27   14    1  8.00177E+03  4.02996E+03  2.83272E+02  1.00000E+00  1.01581E+04  3.28438E+03  4.03000E+03  9.99900E-01    9   14    1   1     1     11  5.47500E+02
  1   27   14    1  8.00009E+03  4.02996E+03  2.83272E+02  1.00000E+00  1.00810E+04  3.30313E+03  4.03000E+03  9.99900E-01    9   14    1   1     1     11  5.47500E+02
  1   27   14    1  7.99841E+03  4.02996E+03  2.83272E+02  1.00000E+00  1.00044E+04  3.32188E+03  4.03000E+03  9.99900E-01    9   14    1   1     1     11  5.47500E+02
  1   27   14    1  7.99674E+03  4.02996E+03  2.83272E+02  1.00000E+00  9.92846E+03  3.34063E+03  4.03000E+03  9.99900E-01    9   14    1   1     1     11  5.47500E+02
  1   27   14    1  7.99507E+03  4.02997E+03  2.83272E+02  1.00000E+00  9.85309E+03  3.35938E+03  4.03000E+03  9.99900E-01    9   14    1   1     1     11  5.47500E+02
  1   27   14    1  7.99340E+03  4.02997E+03  2.83272E+02  1.00000E+00  9.77829E+03  3.37813E+03  4.03000E+03  9.99900E-01    9   14    1   1     1     11  5.47500E+02
  1   27   14    1  7.99174E+03  4.02997E+03  2.83272E+02  1.00000E+00  9.70404E+03  3.39688E+03  4.03000E+03  9.99900E-01    9   14    1   1     1     11  5.47500E+02
  1   27   14    1  7.99008E+03  4.02997E+03  2.83272E+02  1.00000E+00  9.63032E+03  3.41563E+03  4.03000E+03  9.99900E-01    9   14    1   1     1     11  5.47500E+02
  1   27   14    1  7.98842E+03  4.02998E+03  2.83272E+02  1.00000E+00  9.55713E+03  3.43438E+03  4.03000E+03  9.99900E-01    9   14    1   1     1     11  5.47500E+02
  1   27   14    1  7.98676E+03  4.02998E+03  2.83272E+02  1.00000E+00  9.48445E+03  3.45313E+03  4.03000E+03  9.99900E-01    9   14    1   1     1     11  5.47500E+02
  1   27   14    1  7.98511E+03  4.02998E+03  2.83272E+02  1.00000E+00  9.41227E+03  3.47188E+03  4.03000E+03  9.99900E-01    9   14    1   1     1     11  5.47500E+02
  1   27   14    1  7.98346E+03  4.02999E+03  2.83272E+02  1.00000E+00  9.34057E+03  3.49063E+03  4.03000E+03  9.99900E-01    9   14    1   1     1     11  5.47500E+02
  2   14   14    4  4.05000E+03  4.03000E+03  9.35353E+01  8.70705E-01  1.29780E+04  2.81250E+03  4.03000E+03  9.99900E-01    8   14    1   1     1     11  7.30000E+02
  2   14   14    4  4.05000E+03  4.03000E+03  9.27655E+01  8.55309E-01  1.33600E+04  2.83750E+03  4.03000E+03  9.99900E-01    8   14    1   1     1     11  7.30000E+02
  2   14   14    4  4.05000E+03  4.03000E+03  9.19164E+01  8.38329E-01  1.37973E+04  2.86250E+03  4.03000E+03  9.99900E-01    8   14    1   1     1     11  7.30000E+02
  2   14   14    4  4.05000E+03  4.03000E+03  9.09635E+01  8.19270E-01  1.40985E+04  2.88750E+03  4.03000E+03  9.99900E-01    8   14    1   1     1     11  7.30000E+02
  2   14   14    4  4.05000E+03  4.03000E+03  8.99260E+01  7.98519E-01  1.52219E+04  2.91250E+03  4.03000E+03  9.99900E-01    8   14    1   1     1     11  7.30000E+02
  2   14   14    4  4.05000E+03  4.03000E+03  8.87949E+01  7.75898E-01  1.59443E+04  2.93750E+03  4.03000E+03  9.99900E-01    8   14    1   1     1     11  7.30000E+02
  2   14   14    4  4.05000E+03  4.03000E+03  8.75421E+01  7.50841E-01  1.67898E+04  2.96250E+03  4.03000E+03  9.99900E-01    8   14    1   1     1     11  7.30000E+02
  2   14   14    4  4.05000E+03  4.03000E+03  8.61599E+01  7.23198E-01  1.78614E+04  2.98750E+03  4.03000E+03  9.99900E-01    8   14    1   1     1     11  7.30000E+02
  1   19   14    3  4.60710E+03  4.02996E+03  1.14641E+02  2.92813E-01  1.82500E+04  3.01250E+03  4.03000E+03  9.99900E-01    8   14    1   1     1     10  7.30000E+02
  1   19   14    3  4.81323E+03  4.02995E+03  1.27285E+02  5.45693E-01  1.82500E+04  3.03750E+03  4.03000E+03  9.99900E-01    8   14    1   1     1     10  7.30000E+02
  1   20   14    3  5.15090E+03  4.02993E+03  1.49561E+02  9.91226E-01  1.82500E+04  3.06250E+03  4.03000E+03  9.99900E-01    8   14    1   1     1     10  7.30000E+02
  1   21   14    2  5.31265E+03  4.02992E+03  1.65227E+02  3.04536E-01  1.82500E+04  3.08750E+03  4.03000E+03  9.99900E-01    8   14    1   1     1     10  7.30000E+02
  1   21   14    2  5.46657E+03  4.02992E+03  1.65626E+02  3.12529E-01  1.82500E+04  3.11250E+03  4.03000E+03  9.99900E-01    8   14    1   1     1     10  7.30000E+02
  1   21   14    2  5.61876E+03  4.02993E+03  1.66008E+02  3.20159E-01  1.82500E+04  3.13750E+03  4.03000E+03  9.99900E-01    8   14    1   1     1     10  7.30000E+02
  1   22   14    2  5.71647E+03  4.02992E+03  1.88680E+02  7.73598E-01  1.82500E+04  3.16250E+03  4.03000E+03  9.99900E-01    8   14    1   1     1     10  7.30000E+02
  1   22   14    2  5.90088E+03  4.02992E+03  1.89184E+02  7.83690E-01  1.82500E+04  3.18750E+03  4.03000E+03  9.99900E-01    8   14    1   1     1     10  7.30000E+02
  1   22   14    2  6.05983E+03  4.02993E+03  1.89601E+02  7.92016E-01  1.82500E+04  3.20938E+03  4.03000E+03  9.99900E-01    9   14    1   1     1     10  7.30000E+02
  1   23   14    1  6.07592E+03  4.02992E+03  2.12660E+02 -3.66992E-01  1.82500E+04  3.22813E+03  4.03000E+03  9.99900E-01    9   14    1   1     1     10  7.30000E+02
  1   27   14    1  8.00513E+03  4.02995E+03  2.83272E+02  1.00000E+00  1.04969E+04  3.24688E+03  4.03000E+03  9.99900E-01    9   14    1   1     1     11  7.30000E+02
  1   27   14    1  8.00345E+03  4.02995E+03  2.83272E+02  1.00000E+00  1.04184E+04  3.26563E+03  4.03000E+03  9.99900E-01    9   14    1   1     1     11  7.30000E+02
  1   27   14    1  8.00177E+03  4.02996E+03  2.83272E+02  1.00000E+00  1.03406E+04  3.28438E+03  4.03000E+03  9.99900E-01    9   14    1   1     1     11  7.30000E+02
  1   27   14    1  8.00009E+03  4.02996E+03  2.83272E+02  1.00000E+00  1.02635E+04  3.30313E+03  4.03000E+03  9.99900E-01    9   14    1   1     1     11  7.30000E+02
  1   27   14    1  7.99841E+03  4.02996E+03  2.83272E+02  1.00000E+00  1.01869E+04  3.32188E+03  4.03000E+03  9.99900E-01    9   14    1   1     1     11  7.30000E+02
  1   27   14    1  7.99674E+03  4.02996E+03  2.83272E+02  1.00000E+00  1.01110E+04  3.34063E+03  4.03000E+03  9.99900E-01    9   14    1   1     1     11  7.30000E+02
  1   27   14    1  7.99507E+03  4.02997E+03  2.83272E+02  1.00000E+00  1.00356E+04  3.35938E+03  4.03000E+03  9.99900E-01    9   14    1   1     1     11  7.30000E+02
  1   27   14    1  7.99340E+03  4.02997E+03  2.83272E+02  1.00000E+00  9.96079E+03  3.37813E+03  4.03000E+03  9.99900E-01    9   14    1   1     1     11  7.30000E+02
  1   27   14    1  7.99174E+03  4.02997E+03  2.83272E+02  1.00000E+00  9.88654E+03  3.39688E+03  4.03000E+03  9.99900E-01    9   14    1   1     1     11  7.30000E+02
  1   27   14    1  7.99008E+03  4.02998E+03  2.83272E+02  1.00000E+00  9.81282E+03  3.41563E+03  4.03000E+03  9.99900E-01    9   14    1   1     1     11  7.30000E+02
  1   27   14    1  7.98842E+03  4.02998E+03  2.83272E+02  1.00000E+00  9.73963E+03  3.43438E+03  4.03000E+03  9.99900E-01    9   14    1   1     1     11  7.30000E+02
  1   27   14    1  7.98676E+03  4.02998E+03  2.83272E+02  1.00000E+00  9.66695E+03  3.45313E+03  4.03000E+03  9.99900E-01    9   14    1   1     1     11  7.30000E+02
  1   27   14    1  7.98511E+03  4.02998E+03  2.83272E+02  1.00000E+00  9.59477E+03  3.47188E+03  4.03000E+03  9.99900E-01    9   14    1   1     1     11  7.30000E+02
  1   27   14    1  7.98346E+03  4.02999E+03  2.83272E+02  1.00000E+00  9.52307E+03  3.49063E+03  4.03000E+03  9.99900E-01    9   14    1   1     1     11  7.30000E+02
  2   14   14    4  4.05000E+03  4.03000E+03  9.35353E+01  8.70705E-01  1.31605E+04  2.81250E+03  4.03000E+03  9.99900E-01    8   14    1   1     1     11  9.12500E+02
  2   14   14    4  4.05000E+03  4.03000E+03  9.27655E+01  8.55310E-01  1.35425E+04  2.83750E+03  4.03000E+03  9.99900E-01    8   14    1   1     1     11  9.12500E+02
  2   14   14    4  4.05000E+03  4.03000E+03  9.19164E+01  8.38327E-01  1.39799E+04  2.86250E+03  4.03000E+03  9.99900E-01    8   14    1   1     1     11  9.12500E+02
  2   14   14    4  4.05000E+03  4.03000E+03  9.09635E+01  8.19271E-01  1.42810E+04  2.88750E+03  4.03000E+03  9.99900E-01    8   14    1   1     1     11  9.12500E+02
  2   14   14    4  4.05000E+03  4.03000E+03  8.99259E+01  7.98517E-01  1.54045E+04  2.91250E+03  4.03000E+03  9.99900E-01    8   14    1   1     1     11  9.12500E+02
  2   14   14    4  4.05000E+03  4.03000E+03  8.87949E+01  7.75897E-01  1.61268E+04  2.93750E+03  4.03000E+03  9.99900E-01    8   14    1   1     1     11  9.12500E+02
  2   14   14    4  4.05000E+03  4.03000E+03  8.75421E+01  7.50842E-01  1.69723E+04  2.96250E+03  4.03000E+03  9.99900E-01    8   14    1   1     1     11  9.12500E+02
  2   14   14    4  4.05000E+03  4.03000E+03  8.61599E+01  7.23198E-01  1.80439E+04  2.98750E+03  4.03000E+03  9.99900E-01    8   14    1   1     1     11  9.12500E+02
  1   19   14    3  4.64476E+03  4.02996E+03  1.18305E+02  3.66096E-01  1.82500E+04  3.01250E+03  4.03000E+03  9.99900E-01    8   14    1   1     1     10  9.12500E+02
  1   19   14    3  4.83797E+03  4.02995E+03  1.30839E+02  6.16783E-01  1.82500E+04  3.03750E+03  4.03000E+03  9.99900E-01    8   14    1   1     1     10  9.12500E+02
  1   20   14    2  5.15803E+03  4.02993E+03  1.51245E+02  2.49081E-02  1.82500E+04  3.06250E+03  4.03000E+03  9.99900E-01    8   14    1   1     1     10  9.12500E+02
  1   21   14    2  5.31541E+03  4.02992E+03  1.66137E+02  3.22738E-01  1.82500E+04  3.08750E+03  4.03000E+03  9.99900E-01    8   14    1   1     1     10  9.12500E+02
  1   21   14    2  5.46716E+03  4.02992E+03  1.66537E+02  3.30733E-01  1.82500E+04  3.11250E+03  4.03000E+03  9.99900E-01    8   14    1   1     1     10  9.12500E+02
  1   21   14    2  5.61717E+03  4.02993E+03  1.66918E+02  3.38363E-01  1.82500E+04  3.13750E+03  4.03000E+03  9.99900E-01    8   14    1   1     1     10  9.12500E+02
  1   22   14    2  5.71373E+03  4.02991E+03  1.89200E+02  7.83997E-01  1.82500E+04  3.16250E+03  4.03000E+03  9.99900E-01    8   14    1   1     1     10  9.12500E+02
  1   22   14    2  5.89629E+03  4.02992E+03  1.89705E+02  7.94105E-01  1.82500E+04  3.18750E+03  4.03000E+03  9.99900E-01    8   14    1   1     1     10  9.12500E+02
  1   22   14    2  6.05367E+03  4.02993E+03  1.90122E+02  8.02445E-01  1.82500E+04  3.20938E+03  4.03000E+03  9.99900E-01    9   14    1   1     1     10  9.12500E+02