@ [ MODPATH 5.0 (TREF=   0.000000E+00 ) ]
  2   14   14    4  4.05000E+03  4.03000E+03  9.35276E+01  8.70552E-01  1.22527E+04  2.81250E+03  4.03000E+03  9.99900E-01    8   14    1   1     1     11  0.00000E+00
  2   14   14    4  4.05000E+03  4.03000E+03  9.27569E+01  8.55138E-01  1.26355E+04  2.83750E+03  4.03000E+03  9.99900E-01    8   14    1   1     1     11  0.00000E+00
  2   14   14    4  4.05000E+03  4.03000E+03  9.19067E+01  8.38134E-01  1.30736E+04  2.86250E+03  4.03000E+03  9.99900E-01    8   14    1   1     1     11  0.00000E+00
  2   14   14    4  4.05000E+03  4.03000E+03  9.09525E+01  8.19051E-01  1.33725E+04  2.88750E+03  4.03000E+03  9.99900E-01    8   14    1   1     1     11  0.00000E+00
  2   14   14    4  4.05000E+03  4.03000E+03  8.99138E+01  7.98277E-01  1.45007E+04  2.91250E+03  4.03000E+03  9.99900E-01    8   14    1   1     1     11  0.00000E+00
  2   14   14    4  4.05000E+03  4.03000E+03  8.87811E+01  7.75622E-01  1.52252E+04  2.93750E+03  4.03000E+03  9.99900E-01    8   14    1   1     1     11  0.00000E+00
  2   14   14    4  4.05000E+03  4.03000E+03  8.75269E+01  7.50538E-01  1.60727E+04  2.96250E+03  4.03000E+03  9.99900E-01    8   14    1   1     1     11  0.00000E+00
  2   14   14    4  4.05000E+03  4.03000E+03  8.61423E+01  7.22845E-01  1.71481E+04  2.98750E+03  4.03000E+03  9.99900E-01    8   14    1   1     1     11  0.00000E+00
  2   14   14    4  4.05000E+03  4.03000E+03  8.45402E+01  6.90804E-01  1.81775E+04  3.01250E+03  4.03000E+03  9.99900E-01    8   14    1   1     1     11  0.00000E+00
  1   19   14    3  4.70004E+03  4.03000E+03  1.12987E+02  2.59733E-01  1.82500E+04  3.03750E+03  4.03000E+03  9.99900E-01    8   14    1   1     1     10  0.00000E+00
  1   20   14    3  5.10210E+03  4.03000E+03  1.43125E+02  8.62508E-01  1.82500E+04  3.06250E+03  4.03000E+03  9.99900E-01    8   14    1   1     1     10  0.00000E+00
  1   21   14    2  5.30344E+03  4.02999E+03  1.61615E+02  2.32298E-01  1.82500E+04  3.08750E+03  4.03000E+03  9.99900E-01    8   14    1   1     1     10  0.00000E+00
  1   21   14    2  5.46645E+03  4.02999E+03  1.62014E+02  2.40284E-01  1.82500E+04  3.11250E+03  4.03000E+03  9.99900E-01    8   14    1   1     1     10  0.00000E+00
  1   21   14    2  5.62762E+03  4.02999E+03  1.62395E+02  2.47904E-01  1.82500E+04  3.13750E+03  4.03000E+03  9.99900E-01    8   14    1   1     1     10  0.00000E+00
  1   22   14    2  5.73047E+03  4.02999E+03  1.86638E+02  7.32766E-01  1.82500E+04  3.16250E+03  4.03000E+03  9.99900E-01    8   14    1   1     1     10  0.00000E+00
  1   22   14    2  5.92246E+03  4.02999E+03  1.87139E+02  7.42787E-01  1.82500E+04  3.18750E+03  4.03000E+03  9.99900E-01    8   14    1   1     1     10  0.00000E+00
  1   23   14    2  6.08771E+03  4.02999E+03  1.89302E+02  7.86049E-01  1.82500E+04  3.20938E+03  4.03000E+03  9.99900E-01    9   14    1   1     1     10  0.00000E+00
  1   23   14    1  6.08637E+03  4.02999E+03  2.12172E+02 -3.91399E-01  1.82500E+04  3.22812E+03  4.03000E+03  9.99900E-01    9   14    1   1     1     10  0.00000E+00
  1   27   14    1  8.00507E+03  4.02999E+03  2.83272E+02  1.00000E+00  9.76525E+03  3.24688E+03  4.03000E+03  9.99900E-01    9   14    1   1     1     11  0.00000E+00
  1   27   14    1  8.00339E+03  4.02999E+03  2.83272E+02  1.00000E+00  9.68679E+03  3.26562E+03  4.03000E+03  9.99900E-01    9   14    1   1     1     11  0.00000E+00
  1   27   14    1  8.00171E+03  4.02999E+03  2.83272E+02  1.00000E+00  9.60900E+03  3.28438E+03  4.03000E+03  9.99900E-01    9   14    1   1     1     11  0.00000E+00
  1   27   14    1  8.00003E+03  4.02999E+03  2.83272E+02  1.00000E+00  9.53184E+03  3.30312E+03  4.03000E+03  9.99900E-01    9   14    1   1     1     11  0.00000E+00
  1   27   14    1  7.99835E+03  4.02999E+03  2.83272E+02  1.00000E+00  9.45531E+03  3.32188E+03  4.03000E+03  9.99900E-01    9   14    1   1     1     11  0.00000E+00
  1   27   14    1  7.99668E+03  4.02999E+03  2.83272E+02  1.00000E+00  9.37938E+03  3.34062E+03  4.03000E+03  9.99900E-01    9   14    1   1     1     11  0.00000E+00
  1   27   14    1  7.99501E+03  4.02999E+03  2.83272E+02  1.00000E+00  9.30402E+03  3.35938E+03  4.03000E+03  9.99900E-01    9   14    1   1     1     11  0.00000E+00
  1   27   14    1  7.99335E+03  4.02999E+03  2.83272E+02  1.00000E+00  9.22923E+03  3.37812E+03  4.03000E+03  9.99900E-01    9   14    1   1     1     11  0.00000E+00
  1   27   14    1  7.99168E+03  4.02999E+03  2.83272E+02  1.00000E+00  9.15499E+03  3.39688E+03  4.03000E+03  9.99900E-01    9   14    1   1     1     11  0.00000E+00
  1   27   14    1  7.99002E+03  4.02999E+03  2.83272E+02  1.00000E+00  9.08129E+03  3.41562E+03  4.03000E+03  9.99900E-01    9   14    1   1     1     11  0.00000E+00
  1   27   14    1  7.98836E+03  4.02999E+03  2.83272E+02  1.00000E+00  9.00811E+03  3.43438E+03  4.03000E+03  9.99900E-01    9   14    1   1     1     11  0.00000E+00
  1   27   14    1  7.98671E+03  4.02999E+03  2.83272E+02  1.00000E+00  8.93544E+03  3.45312E+03  4.03000E+03  9.99900E-01    9   14    1   1     1     11  0.00000E+00
  1   27   14    1  7.98505E+03  4.02999E+03  2.83272E+02  1.00000E+00  8.86326E+03  3.47188E+03  4.03000E+03  9.99900E-01    9   14    1   1     1     11  0.00000E+00
  1   27   14    1  7.98340E+03  4.02999E+03  2.83272E+02  1.00000E+00  8.79158E+03  3.49062E+03  4.03000E+03  9.99900E-01    9   14    1   1     1     11  0.00000E+00
  2   14   14    4  4.05000E+03  4.03000E+03  9.35275E+01  8.70550E-01  1.24353E+04  2.81250E+03  4.03000E+03  9.99900E-01    8   14    1   1     1     11  1.82500E+02
  2   14   14    4  4.05000E+03  4.03000E+03  9.27569E+01  8.55138E-01  1.28180E+04  2.83750E+03  4.03000E+03  9.99900E-01    8   14    1   1     1     11  1.82500E+02
  2   14   14    4  4.05000E+03  4.03000E+03  9.19067E+01  8.38134E-01  1.32561E+04  2.86250E+03  4.03000E+03  9.99900E-01    8   14    1   1     1     11  1.82500E+02
  2   14   14    4  4.05000E+03  4.03000E+03  9.09525E+01  8.19050E-01  1.35550E+04  2.88750E+03  4.03000E+03  9.99900E-01    8   14    1   1     1     11  1.82500E+02
  2   14   14    4  4.05000E+03  4.03000E+03  8.99139E+01  7.98277E-01  1.46832E+04  2.91250E+03  4.03000E+03  9.99900E-01    8   14    1   1     1     11  1.82500E+02
  2   14   14    4  4.05000E+03  4.03000E+03  8.87811E+01  7.75622E-01  1.54077E+04  2.93750E+03  4.03000E+03  9.99900E-01    8   14    1   1     1     11  1.82500E+02
  2   14   14    4  4.05000E+03  4.03000E+03  8.75269E+01  7.50538E-01  1.62552E+04  2.96250E+03  4.03000E+03  9.99900E-01    8   14    1   1     1     11  1.82500E+02
  2   14   14    4  4.05000E+03  4.03000E+03  8.61422E+01  7.22844E-01  1.73307E+04  2.98750E+03  4.03000E+03  9.99900E-01    8   14    1   1     1     11  1.82500E+02
  1   18   14    4  4.39341E+03  4.03000E+03  9.40714E+01  8.81427E-01  1.82500E+04  3.01250E+03  4.03000E+03  9.99900E-01    8   14    1   1     1     10  1.82500E+02
  1   19   14    3  4.73187E+03  4.03000E+03  1.16665E+02  3.33298E-01  1.82500E+04  3.03750E+03  4.03000E+03  9.99900E-01    8   14    1   1     1     10  1.82500E+02
  1   20   14    3  5.11584E+03  4.03000E+03  1.44794E+02  8.95875E-01  1.82500E+04  3.06250E+03  4.03000E+03  9.99900E-01    8   14    1   1     1     10  1.82500E+02
  1   21   14    2  5.30634E+03  4.02999E+03  1.62524E+02  2.50480E-01  1.82500E+04  3.08750E+03  4.03000E+03  9.99900E-01    8   14    1   1     1     10  1.82500E+02
  1   21   14    2  5.46703E+03  4.02999E+03  1.62923E+02  2.58466E-01  1.82500E+04  3.11250E+03  4.03000E+03  9.99900E-01    8   14    1   1     1     10  1.82500E+02
  1   21   14    2  5.62590E+03  4.02999E+03  1.63304E+02  2.66086E-01  1.82500E+04  3.13750E+03  4.03000E+03  9.99900E-01    8   14    1   1     1     10  1.82500E+02
  1   22   14    2  5.72759E+03  4.02999E+03  1.87155E+02  7.43093E-01  1.82500E+04  3.16250E+03  4.03000E+03  9.99900E-01    8   14    1   1     1     10  1.82500E+02
  1   22   14    2  5.91766E+03  4.02999E+03  1.87656E+02  7.53129E-01  1.82500E+04  3.18750E+03  4.03000E+03  9.99900E-01    8   14    1   1     1     10  1.82500E+02
  1   23   14    2  6.08135E+03  4.02999E+03  1.89424E+02  7.88485E-01  1.82500E+04  3.20938E+03  4.03000E+03  9.99900E-01    9   14    1   1     1     10  1.82500E+02
  1   23   14    1  6.08640E+03  4.02999E+03  2.12303E+02 -3.84875E-01  1.82500E+04  3.22812E+03  4.03000E+03  9.99900E-01    9   14    1   1     1     10  1.82500E+02
  1   27   14    1  8.00507E+03  4.02999E+03  2.83272E+02  1.00000E+00  9.94775E+03  3.24688E+03  4.03000E+03  9.99900E-01    9   14    1   1     1     11  1.82500E+02
  1   27   14    1  8.00339E+03  4.02999E+03  2.83272E+02  1.00000E+00  9.86929E+03  3.26562E+03  4.03000E+03  9.99900E-01    9   14    1   1     1     11  1.82500E+02
  1   27   14    1  8.00171E+03  4.02999E+03  2.83272E+02  1.00000E+00  9.79150E+03  3.28438E+03  4.03000E+03  9.99900E-01    9   14    1   1     1     11  1.82500E+02
  1   27   14    1  8.00003E+03  4.02999E+03  2.83272E+02  1.00000E+00  9.71434E+03  3.30312E+03  4.03000E+03  9.99900E-01    9   14    1   1     1     11  1.82500E+02
  1   27   14    1  7.99835E+03  4.02999E+03  2.83272E+02  1.00000E+00  9.63781E+03  3.32188E+03  4.03000E+03  9.99900E-01    9   14    1   1     1     11  1.82500E+02
  1   27   14    1  7.99668E+03  4.02999E+03  2.83272E+02  1.00000E+00  9.56188E+03  3.34062E+03  4.03000E+03  9.99900E-01    9   14    1   1     1     11  1.82500E+02
  1   27   14    1  7.99501E+03  4.02999E+03  2.83272E+02  1.00000E+00  9.48652E+03  3.35938E+03  4.03000E+03  9.99900E-01    9   14    1   1     1     11  1.82500E+02
  1   27   14    1  7.99335E+03  4.02999E+03  2.83272E+02  1.00000E+00  9.41173E+03  3.37812E+03  4.03000E+03  9.99900E-01    9   14    1   1     1     11  1.82500E+02
  1   27   14    1  7.99168E+03  4.02999E+03  2.83272E+02  1.00000E+00  9.33750E+03  3.39688E+03  4.03000E+03  9.99900E-01    9   14    1   1     1     11  1.82500E+02
  1   27   14    1  7.99002E+03  4.02999E+03  2.83272E+02  1.00000E+00  9.26379E+03  3.41562E+03  4.03000E+03  9.99900E-01    9   14    1   1     1     11  1.82500E+02
  1   27   14    1  7.98836E+03  4.02999E+03  2.83272E+02  1.00000E+00  9.19061E+03  3.43438E+03  4.03000E+03  9.99900E-01    9   14    1   1     1     11  1.82500E+02
  1   27   14    1  7.98671E+03  4.02999E+03  2.83272E+02  1.00000E+00  9.11794E+03  3.45312E+03  4.03000E+03  9.99900E-01    9   14    1   1     1     11  1.82500E+02
  1   27   14    1  7.98505E+03  4.02999E+03  2.83272E+02  1.00000E+00  9.04576E+03  3.47188E+03  4.03000E+03  9.99900E-01    9   14    1   1     1     11  1.82500E+02
  1   27   14    1  7.98340E+03  4.02999E+03  2.83272E+02  1.00000E+00  8.97408E+03  3.49062E+03  4.03000E+03  9.99900E-01    9   14    1   1     1     11  1.82500E+02
  2   14   14    4  4.05000E+03  4.03000E+03  9.35275E+01  8.70551E-01  1.26178E+04  2.81250E+03  4.03000E+03  9.99900E-01    8   14    1   1     1     11  3.65000E+02
  2   14   14    4  4.05000E+03  4.03000E+03  9.27569E+01  8.55138E-01  1.30005E+04  2.83750E+03  4.03000E+03  9.99900E-01    8   14    1   1     1     11  3.65000E+02
  2   14   14    4  4.05000E+03  4.03000E+03  9.19067E+01  8.38133E-01  1.34386E+04  2.86250E+03  4.03000E+03  9.99900E-01    8   14    1   1     1     11  3.65000E+02
  2   14   14    4  4.05000E+03  4.03000E+03  9.09525E+01  8.19049E-01  1.37375E+04  2.88750E+03  4.03000E+03  9.99900E-01    8   14    1   1     1     11  3.65000E+02
  2   14   14    4  4.05000E+03  4.03000E+03  8.99138E+01  7.98276E-01  1.48658E+04  2.91250E+03  4.03000E+03  9.99900E-01    8   14    1   1     1     11  3.65000E+02
  2   14   14    4  4.05000E+03  4.03000E+03  8.87812E+01  7.75624E-01  1.55902E+04  2.93750E+03  4.03000E+03  9.99900E-01    8   14    1   1     1     11  3.65000E+02
  2   14   14    4  4.05000E+03  4.03000E+03  8.75269E+01  7.50538E-01  1.64377E+04  2.96250E+03  4.03000E+03  9.99900E-01    8   14    1   1     1     11  3.65000E+02
  2   14   14    4  4.05000E+03  4.03000E+03  8.61423E+01  7.22845E-01  1.75131E+04  2.98750E+03  4.03000E+03  9.99900E-01    8   14    1   1     1     11  3.65000E+02
  1   18   14    3  4.52741E+03  4.03000E+03  1.03218E+02  6.43593E-02  1.82500E+04  3.01250E+03  4.03000E+03  9.99900E-01    8   14    1   1     1     10  3.65000E+02
  1   19   14    3  4.76171E+03  4.03000E+03  1.20312E+02  4.06233E-01  1.82500E+04  3.03750E+03  4.03000E+03  9.99900E-01    8   14    1   1     1     10  3.65000E+02
  1   20   14    3  5.12912E+03  4.03000E+03  1.46469E+02  9.29389E-01  1.82500E+04  3.06250E+03  4.03000E+03  9.99900E-01    8   14    1   1     1     10  3.65000E+02
  1   21   14    2  5.30919E+03  4.02999E+03  1.63433E+02  2.68667E-01  1.82500E+04  3.08750E+03  4.03000E+03  9.99900E-01    8   14    1   1     1     10  3.65000E+02
  1   21   14    2  5.46760E+03  4.02999E+03  1.63833E+02  2.76656E-01  1.82500E+04  3.11250E+03  4.03000E+03  9.99900E-01    8   14    1   1     1     10  3.65000E+02
  1   21   14    2  5.62422E+03  4.02999E+03  1.64214E+02  2.84274E-01  1.82500E+04  3.13750E+03  4.03000E+03  9.99900E-01    8   14    1   1     1     10  3.65000E+02
  1   22   14    2  5.72474E+03  4.02999E+03  1.87672E+02  7.53437E-01  1.82500E+04  3.16250E+03  4.03000E+03  9.99900E-01    8   14    1   1     1     10  3.65000E+02
  1   22   14    2  5.91293E+03  4.02999E+03  1.88174E+02  7.63490E-01  1.82500E+04  3.18750E+03  4.03000E+03  9.99900E-01    8   14    1   1     1     10  3.65000E+02
  1   23   14    2  6.07505E+03  4.02999E+03  1.89547E+02  7.90935E-01  1.82500E+04  3.20938E+03  4.03000E+03  9.99900E-01    9   14    1   1     1     10  3.65000E+02
  1   23   14    1  6.08640E+03  4.02999E+03  2.12433E+02 -3.78352E-01  1.82500E+04  3.22812E+03  4.03000E+03  9.99900E-01    9   14    1   1     1     10  3.65000E+02
  1   27   14    1  8.00507E+03  4.02999E+03  2.83272E+02  1.00000E+00  1.01302E+04  3.24688E+03  4.03000E+03  9.99900E-01    9   14    1   1     1     11  3.65000E+02
  1   27   14    1  8.00339E+03  4.02999E+03  2.83272E+02  1.00000E+00  1.00518E+04  3.26562E+03  4.03000E+03  9.99900E-01    9   14    1   1     1     11  3.65000E+02
  1   27   14    1  8.00171E+03  4.02999E+03  2.83272E+02  1.00000E+00  9.97400E+03  3.28438E+03  4.03000E+03  9.99900E-01    9   14    1   1     1     11  3.65000E+02
  1   27   14    1  8.00003E+03  4.02999E+03  2.83272E+02  1.00000E+00  9.89685E+03  3.30312E+03  4.03000E+03  9.99900E-01    9   14    1   1     1     11  3.65000E+02
  1   27   14    1  7.99835E+03  4.02999E+03  2.83272E+02  1.00000E+00  9.82031E+03  3.32188E+03  4.03000E+03  9.99900E-01    9   14    1   1     1     11  3.65000E+02
  1   27   14    1  7.99668E+03  4.02999E+03  2.83272E+02  1.00000E+00  9.74438E+03  3.34062E+03  4.03000E+03  9.99900E-01    9   14    1   1     1     11  3.65000E+02
  1   27   14    1  7.99501E+03  4.02999E+03  2.83272E+02  1.00000E+00  9.66902E+03  3.35938E+03  4.03000E+03  9.99900E-01    9   14    1   1     1     11  3.65000E+02
  1   27   14    1  7.99335E+03  4.02999E+03  2.83272E+02  1.00000E+00  9.59423E+03  3.37812E+03  4.03000E+03  9.99900E-01    9   14    1   1     1     11  3.65000E+02
  1   27   14    1  7.99168E+03  4.02999E+03  2.83272E+02  1.00000E+00  9.51999E+03  3.39688E+03  4.03000E+03  9.99900E-01    9   14    1   1     1     11  3.65000E+02
  1   27   14    1  7.99002E+03  4.02999E+03  2.83272E+02  1.00000E+00  9.44629E+03  3.41562E+03  4.03000E+03  9.99900E-01    9   14    1   1     1     11  3.65000E+02
  1   27   14    1  7.98836E+03  4.02999E+03  2.83272E+02  1.00000E+00  9.37311E+03  3.43438E+03  4.03000E+03  9.99900E-01    9   14    1   1     1     11  3.65000E+02
  1   27   14    1  7.98671E+03  4.02999E+03  2.83272E+02  1.00000E+00  9.30043E+03  3.45312E+03  4.03000E+03  9.99900E-01    9   14    1   1     1     11  3.65000E+02
  1   27   14    1  7.98505E+03  4.02999E+03  2.83272E+02  1.00000E+00  9.22826E+03  3.47188E+03  4.03000E+03  9.99900E-01    9   14    1   1     1     11  3.65000E+02
  1   27   14    1  7.98340E+03  4.02999E+03  2.83272E+02  1.00000E+00  9.15658E+03  3.49062E+03  4.03000E+03  9.99900E-01    9   14    1   1     1     11  3.65000E+02
  2   14   14    4  4.05000E+03  4.03000E+03  9.35276E+01  8.70551E-01  1.28003E+04  2.81250E+03  4.03000E+03  9.99900E-01    8   14    1   1     1     11  5.47500E+02
  2   14   14    4  4.05000E+03  4.03000E+03  9.27569E+01  8.55138E-01  1.31830E+04  2.83750E+03  4.03000E+03  9.99900E-01    8   14    1   1     1     11  5.47500E+02
  2   14   14    4  4.05000E+03  4.03000E+03  9.19067E+01  8.38133E-01  1.36211E+04  2.86250E+03  4.03000E+03  9.99900E-01    8   14    1   1     1     11  5.47500E+02
  2   14   14    4  4.05000E+03  4.03000E+03  9.09525E+01  8.19050E-01  1.39200E+04  2.88750E+03  4.03000E+03  9.99900E-01    8   14    1   1     1     11  5.47500E+02
  2   14   14    4  4.05000E+03  4.03000E+03  8.99138E+01  7.98277E-01  1.50482E+04  2.91250E+03  4.03000E+03  9.99900E-01    8   14    1   1     1     11  5.47500E+02
  2   14   14    4  4.05000E+03  4.03000E+03  8.87812E+01  7.75624E-01  1.57727E+04  2.93750E+03  4.03000E+03  9.99900E-01    8   14    1   1     1     11  5.47500E+02
  2   14   14    4  4.05000E+03  4.03000E+03  8.75268E+01  7.50537E-01  1.66203E+04  2.96250E+03  4.03000E+03  9.99900E-01    8   14    1   1     1     11  5.47500E+02
  2   14   14    4  4.05000E+03  4.03000E+03  8.61422E+01  7.22844E-01  1.76957E+04  2.98750E+03  4.03000E+03  9.99900E-01    8   14    1   1     1     11  5.47500E+02
  1   19   14    3  4.57039E+03  4.03000E+03  1.11132E+02  2.22637E-01  1.82500E+04  3.01250E+03  4.03000E+03  9.99900E-01    8   14    1   1     1     10  5.47500E+02
  1   19   14    3  4.78967E+03  4.03000E+03  1.23926E+02  4.78520E-01  1.82500E+04  3.03750E+03  4.03000E+03  9.99900E-01    8   14    1   1     1     10  5.47500E+02
  1   20   14    3  5.14192E+03  4.03000E+03  1.48148E+02  9.62957E-01  1.82500E+04  3.06250E+03  4.03000E+03  9.99900E-01    8   14    1   1     1     10  5.47500E+02
  1   21   14    2  5.31200E+03  4.02999E+03  1.64343E+02  2.86855E-01  1.82500E+04  3.08750E+03  4.03000E+03  9.99900E-01    8   14    1   1     1     10  5.47500E+02
  1   21   14    2  5.46817E+03  4.02999E+03  1.64742E+02  2.94845E-01  1.82500E+04  3.11250E+03  4.03000E+03  9.99900E-01    8   14    1   1     1     10  5.47500E+02
  1   21   14    2  5.62255E+03  4.02999E+03  1.65123E+02  3.02470E-01  1.82500E+04  3.13750E+03  4.03000E+03  9.99900E-01    8   14    1   1     1     10  5.47500E+02
  1   22   14    2  5.72192E+03  4.02999E+03  1.88190E+02  7.63796E-01  1.82500E+04  3.16250E+03  4.03000E+03  9.99900E-01    8   14    1   1     1     10  5.47500E+02
  1   22   14    2  5.90822E+03  4.02999E+03  1.88693E+02  7.73866E-01  1.82500E+04  3.18750E+03  4.03000E+03  9.99900E-01    8   14    1   1     1     10  5.47500E+02
  1   23   14    2  6.06878E+03  4.02999E+03  1.89670E+02  7.93391E-01  1.82500E+04  3.20938E+03  4.03000E+03  9.99900E-01    9   14    1   1     1     10  5.47500E+02
  1   23   14    1  6.08642E+03  4.02999E+03  2.12563E+02 -3.71827E-01  1.82500E+04  3.22812E+03  4.03000E+03  9.99900E-01    9   14    1   1     1     10  5.47500E+02
  1   27   14    1  8.00507E+03  4.02999E+03  2.83272E+02  1.00000E+00  1.03127E+04  3.24688E+03  4.03000E+03  9.99900E-01    9   14    1   1     1     11  5.47500E+02
  1   27   14    1  8.00339E+03  4.02999E+03  2.83272E+02  1.00000E+00  1.02343E+04  3.26562E+03  4.03000E+03  9.99900E-01    9   14    1   1     1     11  5.47500E+02
  1   27   14    1  8.00171E+03  4.02999E+03  2.83272E+02  1.00000E+00  1.01565E+04  3.28438E+03  4.03000E+03  9.99900E-01    9   14    1   1     1     11  5.47500E+02
  1   27   14    1  8.00003E+03  4.02999E+03  2.83272E+02  1.00000E+00  1.00793E+04  3.30312E+03  4.03000E+03  9.99900E-01    9   14    1   1     1     11  5.47500E+02
  1   27   14    1  7.99835E+03  4.02999E+03  2.83272E+02  1.00000E+00  1.00028E+04  3.32188E+03  4.03000E+03  9.99900E-01    9   14    1   1     1     11  5.47500E+02
  1   27   14    1  7.99668E+03  4.02999E+03  2.83272E+02  1.00000E+00  9.92687E+03  3.34062E+03  4.03000E+03  9.99900E-01    9   14    1   1     1     11  5.47500E+02
  1   27   14    1  7.99501E+03  4.02999E+03  2.83272E+02  1.00000E+00  9.85152E+03  3.35938E+03  4.03000E+03  9.99900E-01    9   14    1   1     1     11  5.47500E+02
  1   27   14    1  7.99335E+03  4.02999E+03  2.83272E+02  1.00000E+00  9.77673E+03  3.37812E+03  4.03000E+03  9.99900E-01    9   14    1   1     1     11  5.47500E+02
  1   27   14    1  7.99168E+03  4.02999E+03  2.83272E+02  1.00000E+00  9.70249E+03  3.39688E+03  4.03000E+03  9.99900E-01    9   14    1   1     1     11  5.47500E+02
  1   27   14    1  7.99002E+03  4.02999E+03  2.83272E+02  1.00000E+00  9.62879E+03  3.41562E+03  4.03000E+03  9.99900E-01    9   14    1   1     1     11  5.47500E+02
  1   27   14    1  7.98836E+03  4.02999E+03  2.83272E+02  1.00000E+00  9.55561E+03  3.43438E+03  4.03000E+03  9.99900E-01    9   14    1   1     1     11  5.47500E+02
  1   27   14    1  7.98671E+03  4.02999E+03  2.83272E+02  1.00000E+00  9.48294E+03  3.45312E+03  4.03000E+03  9.99900E-01    9   14    1   1     1     11  5.47500E+02
  1   27   14    1  7.98505E+03  4.02999E+03  2.83272E+02  1.00000E+00  9.41076E+03  3.47188E+03  4.03000E+03  9.99900E-01    9   14    1   1     1     11  5.47500E+02
  1   27   14    1  7.98340E+03  4.02999E+03  2.83272E+02  1.00000E+00  9.33908E+03  3.49062E+03  4.03000E+03  9.99900E-01    9   14    1   1     1     11  5.47500E+02
  2   14   14    4  4.05000E+03  4.03000E+03  9.35275E+01  8.70551E-01  1.29828E+04  2.81250E+03  4.03000E+03  9.99900E-01    8   14    1   1     1     11  7.30000E+02
  2   14   14    4  4.05000E+03  4.03000E+03  9.27569E+01  8.55138E-01  1.33655E+04  2.83750E+03  4.03000E+03  9.99900E-01    8   14    1   1     1     11  7.30000E+02
  2   14   14    4  4.05000E+03  4.03000E+03  9.19067E+01  8.38133E-01  1.38036E+04  2.86250E+03  4.03000E+03  9.99900E-01    8   14    1   1     1     11  7.30000E+02
  2   14   14    4  4.05000E+03  4.03000E+03  9.09525E+01  8.19049E-01  1.41025E+04  2.88750E+03  4.03000E+03  9.99900E-01    8   14    1   1     1     11  7.30000E+02
  2   14   14    4  4.05000E+03  4.03000E+03  8.99138E+01  7.98277E-01  1.52307E+04  2.91250E+03  4.03000E+03  9.99900E-01    8   14    1   1     1     11  7.30000E+02
  2   14   14    4  4.05000E+03  4.03000E+03  8.87812E+01  7.75623E-01  1.59553E+04  2.93750E+03  4.03000E+03  9.99900E-01    8   14    1   1     1     11  7.30000E+02
  2   14   14    4  4.05000E+03  4.03000E+03  8.75269E+01  7.50538E-01  1.68027E+04  2.96250E+03  4.03000E+03  9.99900E-01    8   14    1   1     1     11  7.30000E+02
  2   14   14    4  4.05000E+03  4.03000E+03  8.61422E+01  7.22844E-01  1.78782E+04  2.98750E+03  4.03000E+03  9.99900E-01    8   14    1   1     1     11  7.30000E+02
  1   19   14    3  4.61039E+03  4.03000E+03  1.14828E+02  2.96561E-01  1.82500E+04  3.01250E+03  4.03000E+03  9.99900E-01    8   14    1   1     1     10  7.30000E+02
  1   19   14    3  4.81590E+03  4.03000E+03  1.27510E+02  5.50208E-01  1.82500E+04  3.03750E+03  4.03000E+03  9.99900E-01    8   14    1   1     1     10  7.30000E+02
  1   20   14    3  5.15429E+03  4.02999E+03  1.49834E+02  9.96674E-01  1.82500E+04  3.06250E+03  4.03000E+03  9.99900E-01    8   14    1   1     1     10  7.30000E+02
  1   21   14    2  5.31478E+03  4.02999E+03  1.65252E+02  3.05044E-01  1.82500E+04  3.08750E+03  4.03000E+03  9.99900E-01    8   14    1   1     1     10  7.30000E+02
  1   21   14    2  5.46872E+03  4.02999E+03  1.65652E+02  3.13040E-01  1.82500E+04  3.11250E+03  4.03000E+03  9.99900E-01    8   14    1   1     1     10  7.30000E+02
  1   21   14    2  5.62092E+03  4.02999E+03  1.66033E+02  3.20665E-01  1.82500E+04  3.13750E+03  4.03000E+03  9.99900E-01    8   14    1   1     1     10  7.30000E+02
  1   22   14    2  5.71913E+03  4.02999E+03  1.88709E+02  7.74173E-01  1.82500E+04  3.16250E+03  4.03000E+03  9.99900E-01    8   14    1   1     1     10  7.30000E+02
  1   22   14    2  5.90356E+03  4.02999E+03  1.89213E+02  7.84257E-01  1.82500E+04  3.18750E+03  4.03000E+03  9.99900E-01    8   14    1   1     1     10  7.30000E+02
  1   23   14    2  6.06255E+03  4.02999E+03  1.89793E+02  7.95850E-01  1.82500E+04  3.20938E+03  4.03000E+03  9.99900E-01    9   14    1   1     1     10  7.30000E+02
  1   23   14    1  6.08640E+03  4.02999E+03  2.12694E+02 -3.65306E-01  1.82500E+04  3.22812E+03  4.03000E+03  9.99900E-01    9   14    1   1     1     10  7.30000E+02
  1   27   14    1  8.00507E+03  4.02999E+03  2.83272E+02  1.00000E+00  1.04952E+04  3.24688E+03  4.03000E+03  9.99900E-01    9   14    1   1     1     11  7.30000E+02
  1   27   14    1  8.00339E+03  4.02999E+03  2.83272E+02  1.00000E+00  1.04168E+04  3.26562E+03  4.03000E+03  9.99900E-01    9   14    1   1     1     11  7.30000E+02
  1   27   14    1  8.00171E+03  4.02999E+03  2.83272E+02  1.00000E+00  1.03390E+04  3.28438E+03  4.03000E+03  9.99900E-01    9   14    1   1     1     11  7.30000E+02
  1   27   14    1  8.00003E+03  4.02999E+03  2.83272E+02  1.00000E+00  1.02618E+04  3.30312E+03  4.03000E+03  9.99900E-01    9   14    1   1     1     11  7.30000E+02
  1   27   14    1  7.99835E+03  4.02999E+03  2.83272E+02  1.00000E+00  1.01853E+04  3.32188E+03  4.03000E+03  9.99900E-01    9   14    1   1     1     11  7.30000E+02
  1   27   14    1  7.99668E+03  4.02999E+03  2.83272E+02  1.00000E+00  1.01094E+04  3.34062E+03  4.03000E+03  9.99900E-01    9   14    1   1     1     11  7.30000E+02
  1   27   14    1  7.99501E+03  4.02999E+03  2.83272E+02  1.00000E+00  1.00340E+04  3.35938E+03  4.03000E+03  9.99900E-01    9   14    1   1     1     11  7.30000E+02
  1   27   14    1  7.99335E+03  4.02999E+03  2.83272E+02  1.00000E+00  9.95923E+03  3.37812E+03  4.03000E+03  9.99900E-01    9   14    1   1     1     11  7.30000E+02
  1   27   14    1  7.99168E+03  4.02999E+03  2.83272E+02  1.00000E+00  9.88499E+03  3.39688E+03  4.03000E+03  9.99900E-01    9   14    1   1     1     11  7.30000E+02
  1   27   14    1  7.99002E+03  4.02999E+03  2.83272E+02  1.00000E+00  9.81129E+03  3.41562E+03  4.03000E+03  9.99900E-01    9   14    1   1     1     11  7.30000E+02
  1   27   14    1  7.98836E+03  4.02999E+03  2.83272E+02  1.00000E+00  9.73811E+03  3.43438E+03  4.03000E+03  9.99900E-01    9   14    1   1     1     11  7.30000E+02
  1   27   14    1  7.98671E+03  4.02999E+03  2.83272E+02  1.00000E+00  9.66544E+03  3.45312E+03  4.03000E+03  9.99900E-01    9   14    1   1     1     11  7.30000E+02
  1   27   14    1  7.98505E+03  4.02999E+03  2.83272E+02  1.00000E+00  9.59326E+03  3.47188E+03  4.03000E+03  9.99900E-01    9   14    1   1     1     11  7.30000E+02
  1   27   14    1  7.98340E+03  4.02999E+03  2.83272E+02  1.00000E+00  9.52157E+03  3.49062E+03  4.03000E+03  9.99900E-01    9   14    1   1     1     11  7.30000E+02
  2   14   14    4  4.05000E+03  4.03000E+03  9.35275E+01  8.70551E-01  1.31653E+04  2.81250E+03  4.03000E+03  9.99900E-01    8   14    1   1     1     11  9.12500E+02
  2   14   14    4  4.05000E+03  4.03000E+03  9.27569E+01  8.55138E-01  1.35480E+04  2.83750E+03  4.03000E+03  9.99900E-01    8   14    1   1     1     11  9.12500E+02
  2   14   14    4  4.05000E+03  4.03000E+03  9.19067E+01  8.38133E-01  1.39861E+04  2.86250E+03  4.03000E+03  9.99900E-01    8   14    1   1     1     11  9.12500E+02
  2   14   14    4  4.05000E+03  4.03000E+03  9.09525E+01  8.19050E-01  1.42850E+04  2.88750E+03  4.03000E+03  9.99900E-01    8   14    1   1     1     11  9.12500E+02
  2   14   14    4  4.05000E+03  4.03000E+03  8.99138E+01  7.98276E-01  1.54132E+04  2.91250E+03  4.03000E+03  9.99900E-01    8   14    1   1     1     11  9.12500E+02
  2   14   14    4  4.05000E+03  4.03000E+03  8.87812E+01  7.75623E-01  1.61377E+04  2.93750E+03  4.03000E+03  9.99900E-01    8   14    1   1     1     11  9.12500E+02
  2   14   14    4  4.05000E+03  4.03000E+03  8.75269E+01  7.50537E-01  1.69852E+04  2.96250E+03  4.03000E+03  9.99900E-01    8   14    1   1     1     11  9.12500E+02
  2   14   14    4  4.05000E+03  4.03000E+03  8.61422E+01  7.22844E-01  1.80607E+04  2.98750E+03  4.03000E+03  9.99900E-01    8   14    1   1     1     11  9.12500E+02
  1   19   14    3  4.64783E+03  4.03000E+03  1.18490E+02  3.69797E-01  1.82500E+04  3.01250E+03  4.03000E+03  9.99900E-01    8   14    1   1     1     10  9.12500E+02
  1   19   14    3  4.84048E+03  4.03000E+03  1.31064E+02  6.21277E-01  1.82500E+04  3.03750E+03  4.03000E+03  9.99900E-01    8   14    1   1     1     10  9.12500E+02
  1   20   14    2  5.16029E+03  4.03000E+03  1.51518E+02  3.03650E-02  1.82500E+04  3.06250E+03  4.03000E+03  9.99900E-01    8   14    1   1     1     10  9.12500E+02
  1   21   14    2  5.31752E+03  4.02999E+03  1.66162E+02  3.23245E-01  1.82500E+04  3.08750E+03  4.03000E+03  9.99900E-01    8   14    1   1     1     10  9.12500E+02
  1   21   14    2  5.46928E+03  4.02999E+03  1.66562E+02  3.31235E-01  1.82500E+04  3.11250E+03  4.03000E+03  9.99900E-01    8   14    1   1     1     10  9.12500E+02
  1   21   14    2  5.61930E+03  4.02999E+03  1.66943E+02  3.38860E-01  1.82500E+04  3.13750E+03  4.03000E+03  9.99900E-01    8   14    1   1     1     10  9.12500E+02
  1   22   14    2  5.71636E+03  4.02999E+03  1.89228E+02  7.84566E-01  1.82500E+04  3.16250E+03  4.03000E+03  9.99900E-01    8   14    1   1     1     10  9.12500E+02
  1   22   14    2  5.89895E+03  4.02999E+03  1.89733E+02  7.94667E-01  1.82500E+04  3.18750E+03  4.03000E+03  9.99900E-01    8   14    1   1     1     10  9.12500E+02
  1   22   14    2  6.05636E+03  4.02999E+03  1.90150E+02  8.03000E-01  1.82500E+04  3.20938E+03  4.03000E+03  9.99900E-01    9   14    1   1     1     10  9.12500E+02