@ [ MODPATH Version 4.00 (V4, Release 1, 2-2000) [PC] (TREF=   0.182865E+06 ) ]
  1    8   19    1  3.07076E+03  3.37023E+03  3.00396E+02  1.00000E+00  2.95359E+03  4.03000E+03  4.01000E+03  5.00000E-01   14   14    1   3     5     11  0.00000E+00
  1    8    9    1  3.07074E+03  4.68986E+03  3.00396E+02  1.00000E+00  2.95359E+03  4.03000E+03  4.05000E+03  5.00000E-01   14   14    1   3     5     11  0.00000E+00
