@ [ MODPATH Version 3.00 (V3, Release 2, 6-2000)(COMPACT)(TREF=   0.182865E+06 ) ]
      1  4.03000E+03  4.01000E+03  5.00000E-01  2.46469E+02  0.00000E+00     365       5
      1  4.03000E+03  4.01000E+03  5.00000E-01  2.46469E+02  1.24132E-04     392       5
      1  4.02751E+03  3.95000E+03  5.00130E-01  2.50800E+02  3.64297E+00     419       5
      1  4.01444E+03  3.85000E+03  5.01634E-01  2.52994E+02  2.11325E+01     446       5
      1  4.01000E+03  3.82193E+03  5.02587E-01  2.54388E+02  2.95821E+01     445       5
      1  3.98764E+03  3.73471E+03  5.06568E-01  2.54744E+02  6.44219E+01     445       5
      2  4.03000E+03  4.05000E+03  5.00000E-01  2.46469E+02  0.00000E+00     365       5
      2  4.03000E+03  4.05000E+03  5.00000E-01  2.46469E+02  1.24057E-04     338       5
      2  4.02751E+03  4.11000E+03  5.00130E-01  2.50800E+02  3.64298E+00     311       5
      2  4.01444E+03  4.21000E+03  5.01634E-01  2.52994E+02  2.11325E+01     284       5
      2  4.01000E+03  4.23807E+03  5.02586E-01  2.54388E+02  2.95840E+01     283       5
      2  3.98764E+03  4.32529E+03  5.06568E-01  2.54744E+02  6.44219E+01     283       5
      1  3.98764E+03  3.73471E+03  5.06568E-01  2.55597E+02  6.44219E+01     445       4
      1  3.97284E+03  3.70000E+03  5.08683E-01  2.55746E+02  8.25496E+01     472       4
      1  3.95000E+03  3.63455E+03  5.14007E-01  2.57058E+02  1.23231E+02     471       4
      1  3.87330E+03  3.50277E+03  5.29118E-01  2.58299E+02  2.36187E+02     471       4
      2  3.98764E+03  4.32529E+03  5.06568E-01  2.55597E+02  6.44219E+01     283       4
      2  3.97284E+03  4.36000E+03  5.08683E-01  2.55746E+02  8.25496E+01     256       4
      2  3.95000E+03  4.42546E+03  5.14007E-01  2.57058E+02  1.23236E+02     255       4
      2  3.87330E+03  4.55723E+03  5.29117E-01  2.58299E+02  2.36187E+02     255       4
      1  3.87330E+03  3.50277E+03  5.29118E-01  2.59098E+02  2.36187E+02     471       3
      1  3.87110E+03  3.50000E+03  5.29519E-01  2.59127E+02  2.39084E+02     498       3
      1  3.85000E+03  3.46213E+03  5.35544E-01  2.60328E+02  2.80664E+02     497       3
      1  3.82843E+03  3.43125E+03  5.41619E-01  2.60995E+02  3.22069E+02     497       3
      2  3.87330E+03  4.55723E+03  5.29117E-01  2.59098E+02  2.36187E+02     255       3
      2  3.87111E+03  4.56000E+03  5.29518E-01  2.59127E+02  2.39083E+02     228       3
      2  3.85000E+03  4.59788E+03  5.35545E-01  2.60328E+02  2.80672E+02     227       3
      2  3.82844E+03  4.62875E+03  5.41619E-01  2.60995E+02  3.22069E+02     227       3
      1  3.82843E+03  3.43125E+03  5.41619E-01  2.61861E+02  3.22069E+02     497       2
      1  3.80783E+03  3.40691E+03  5.48226E-01  2.62371E+02  3.65010E+02     497       2
      2  3.82844E+03  4.62875E+03  5.41619E-01  2.61861E+02  3.22069E+02     227       2
      2  3.80784E+03  4.65310E+03  5.48225E-01  2.62371E+02  3.65010E+02     227       2
      1  3.80783E+03  3.40691E+03  5.48226E-01  2.63353E+02  3.65010E+02     497       1
      1  3.70000E+03  3.40145E+03  6.05349E-01  2.67870E+02  7.11037E+02     496       1
      1  3.50000E+03  3.39129E+03  7.18583E-01  2.77056E+02  1.38011E+03     495       1
      1  3.20000E+03  3.37619E+03  9.08857E-01  2.92560E+02  2.45728E+03     494       1
      1  3.07076E+03  3.37022E+03  1.00000E+00  3.00396E+02  2.95358E+03     494       1
      2  3.80784E+03  4.65310E+03  5.48225E-01  2.63353E+02  3.65010E+02     227       1
      2  3.70000E+03  4.65856E+03  6.05346E-01  2.67870E+02  7.11024E+02     226       1
      2  3.50000E+03  4.66874E+03  7.18574E-01  2.77055E+02  1.38006E+03     225       1
      2  3.20000E+03  4.68388E+03  9.08844E-01  2.92559E+02  2.45721E+03     224       1
      2  3.07074E+03  4.68987E+03  1.00000E+00  3.00396E+02  2.95359E+03     224       1
