@[MODPATH 5.0]
* ENTER THE NAME FILE:
@RESPONSE: HELP LABEL = 4.2.1
demo-s3adv.mpn
* DO YOU WANT TO STOP COMPUTING PATHS AFTER A SPECIFIED LENGTH OF TIME ?
@RESPONSE: HELP LABEL = 2.1.41
y
* ENTER: MAXIMUM TRACKING TIME & TIME UNITS CONVERSION FACTOR
@RESPONSE: HELP LABEL = 2.1.30
15000 1
* SELECT THE OUTPUT MODE:
*     1 = ENDPOINTS
*     2 = PATHLINE
*     3 = TIME SERIES
@RESPONSE: HELP LABEL = 2.1.6
3
* HOW SHOULD POINTS IN TIME BE SPECIFIED ?
*     1 = WITH A CONSTANT TIME INTERVAL
*     2 = VALUES OF TIME POINTS ARE READ FROM A FILE
@RESPONSE: HELP LABEL = 2.1.7
1
* ENTER: TIME INTERVAL & TIME UNITS CONVERSION FACTOR
@RESPONSE: HELP LABEL = 2.1.34
5000 1
* ENTER THE MAXIMUM NUMBER OF TIME POINTS ALLOWED
@RESPONSE: HELP LABEL = 2.1.8
3
* HOW ARE STARTING LOCATIONS TO BE ENTERED?
*     1 = FROM AN EXISTING DATA FILE
*     2 = ARRAYS OF PARTICLES WILL BE GENERATED INTERNALLY
@RESPONSE: HELP LABEL = 2.1.9
1
* ENTER NAME OF DATA FILE CONTAINING STARTING LOCATIONS:
@RESPONSE: HELP LABEL = 2.1.39
demo-s3adv.loc
* IN WHICH DIRECTION SHOULD PARTICLES BE TRACKED?
*     1 = FORWARD IN THE DIRECTION OF FLOW
*     2 = BACKWARDS TOWARD RECHARGE LOCATIONS
@RESPONSE: HELP LABEL = 2.1.10
1
* HOW SHOULD PARTICLES BE TREATED WHEN THEY ENTER CELLS WITH INTERNAL SINKS ?
*     1 = PASS THROUGH WEAK SINK CELLS
*     2 = STOP AT WEAK SINK CELLS
*     3 = STOP AT WEAK SINK CELLS THAT EXCEED A SPECIFIED STRENGTH
@RESPONSE: HELP LABEL = 2.1.11
1
* DO YOU WANT TO STOP PARTICLES WHENEVER THEY ENTER ONE SPECIFIC ZONE ?
@RESPONSE: HELP LABEL = 2.1.45
n
* DO YOU WANT TO COMPUTE VOLUMETRIC BUDGETS FOR ALL CELLS ?
@RESPONSE: HELP LABEL = 3.1.4
n
*  DO YOU WANT TO CHECK DATA CELL BY CELL ?
@RESPONSE: HELP LABEL = 3.1.2
n
* SUMMARIZE FINAL STATUS OF PARTICLES IN SUMMARY.PTH FILE ?
@RESPONSE: HELP LABEL = 3.1.3
y
