@[MODPATH Version 3.00 (V3, Release 1, 9-94) ]
@
@----------------------------------------------------------------------------
@  File: path-t3.rsp
@
@  Response file for transient flow sample problem: run 3
@----------------------------------------------------------------------------
@
* ENTER THE NAME FILE:
@RESPONSE: HELP LABEL = 4.2.1
demo-t3.mpn
* DEFINE A REFERENCE TIME FOR RELEASING PARTICLES ...
*   SELECT AN OPTION:
*      1 = SPECIFY BY ENTERING A STRESS PERIOD AND TIME STEP
*      2 = SPECIFY BY ENTERING A VALUE OF SIMULATION TIME
@RESPONSE: HELP LABEL = 2.1.2A
1
*   ENTER: STRESS PERIOD & TIME STEP
@RESPONSE: HELP LABEL = 2.1.2
3 1
*   ENTER: RELATIVE TIME WITHIN TIME STEP
*          (VALUE FROM 0 TO 1)
@RESPONSE: HELP LABEL = 2.1.32
0
* STOP COMPUTING PATHS AT A SPECIFIED VALUE OF TRACKING TIME ?
@RESPONSE: HELP LABEL = 2.1.42
n
* SPECIFY AN OPTION FOR READING HEAD AND FLOW RATE DATA:
*   1 = READ STANDARD MODFLOW UNFORMATTED FILES & GENERATE A
*       COMPOSITE BUDGET FILE
*   2 = READ FROM AN EXISTING COMPOSITE BUDGET FILE
@RESPONSE: HELP LABEL = 2.1.3
1
* SELECT THE OUTPUT MODE:
*     1 = ENDPOINTS
*     2 = PATHLINE
*     3 = TIME SERIES
@RESPONSE: HELP LABEL = 2.1.6
1
* HOW ARE STARTING LOCATIONS TO BE ENTERED?
*     1 = FROM AN EXISTING DATA FILE
*     2 = ARRAYS OF PARTICLES WILL BE GENERATED INTERNALLY
@RESPONSE: HELP LABEL = 2.1.9
2
* DO YOU WANT TO STORE INTERNALLY-GENERATED STARTING LOCATIONS ON DISK ?
@RESPONSE: HELP LABEL = 2.1.44
n
* IN WHICH DIRECTION SHOULD PARTICLES BE TRACKED?
*     1 = FORWARD IN THE DIRECTION OF FLOW
*     2 = BACKWARDS TOWARD RECHARGE LOCATIONS
@RESPONSE: HELP LABEL = 2.1.10
1
* HOW SHOULD PARTICLES BE TREATED WHEN THEY ENTER CELLS WITH INTERNAL SINKS ?
*     1 = PASS THROUGH WEAK SINK CELLS
*     2 = STOP AT WEAK SINK CELLS
*     3 = STOP AT WEAK SINK CELLS THAT EXCEED A SPECIFIED STRENGTH
@RESPONSE: HELP LABEL = 2.1.11
1
* DO YOU WANT TO STOP PARTICLES WHENEVER THEY ENTER ONE SPECIFIC ZONE ?
@RESPONSE: HELP LABEL = 2.1.45
n
*  STARTING LOCATIONS WILL BE GENERATED FOR 3-D SUBREGIONS.
*
* SHOULD PARTICLES BE PLACED IN CONSTANT HEAD CELLS ?
@RESPONSE: HELP LABEL = 2.1.46
n
* SELECT AN OPTION FOR RELEASING PARTICLES:
*   1 = SINGLE, INSTANTANEOUS RELEASE
*   2 = MULTIPLE RELEASE TIMES
@RESPONSE: HELP LABEL = 2.1.14A
1
*  ENTER DATA FOR SUBREGION  1 :
*
* DEFINE THE SUBREGION BY ENTERING THE MINIMUM AND MAXIMUM J,I,K COORDINATES.
*   ENTER:  MINIMUM J, MAXIMUM J, MINIMUM I, MAXIMUM I, MINIMUM K, MAXIMUM K
@RESPONSE: HELP LABEL = 2.1.14
1 26 1 27 1 1
* WHERE SHOULD THE PARTICLES BE LOCATED ?
*   1 = WITHIN A CELL
*   2 = ON ONE OR MORE OF THE CELL FACES
@RESPONSE: HELP LABEL = 2.1.15
2
* WHAT CELL FACES DO YOU WANT TO PLACE PARTICLES ON ?
*   (ENTER ALL THE FACE NUMBERS ON A SINGLE LINE)
@RESPONSE: HELP LABEL = 2.1.47
6
* ENTER A 2-D ARRAY OF PARTICLES FOR FACE 6:  NX  NY
@RESPONSE: HELP LABEL = 2.1.22
2 2
*    2808 PARTICLES USED OUT OF 500000 MAXIMUM
* DO YOU WANT TO SPECIFY ANOTHER SUBREGION ?
@RESPONSE: HELP LABEL = 2.1.53
n
* DO YOU WANT TO COMPUTE VOLUMETRIC BUDGETS FOR ALL CELLS ?
@RESPONSE: HELP LABEL = 3.1.4
y
* SPECIFY AN ERROR TOLERANCE (IN PERCENT):
@RESPONSE: HELP LABEL = 3.1.1
0.1
*  DO YOU WANT TO CHECK DATA CELL BY CELL ?
@RESPONSE: HELP LABEL = 3.1.2
n
* SUMMARIZE FINAL STATUS OF PARTICLES IN SUMMARY.PTH FILE ?
@RESPONSE: HELP LABEL = 3.1.3
n
