@ [ MODPATH Version 3.00 (V3, Release 2, 6-2000)(COMPACT)(TREF=   0.000000E+00 ) ]
      1  3.83000E+02  4.03000E+03  9.99000E-01  3.02539E+02  0.00000E+00     352       1
      1  4.00000E+02  4.02999E+03  9.05936E-01  2.94850E+02  5.23236E+02     353       1
      1  6.93353E+02  4.02981E+03  0.00000E+00  2.20000E+02  7.14457E+03     353       1
      1  6.93353E+02  4.02981E+03  1.00000E+00  2.00000E+02  9.45233E+03    1082       1
      1  8.00000E+02  4.02981E+03  5.60050E-01  1.78003E+02  1.21398E+04    1083       1
      1  9.86338E+02  4.02980E+03  1.00000E+00  1.50000E+02  1.60412E+04    1812       1
      1  1.20000E+03  4.02980E+03  5.64391E-01  1.28220E+02  1.96078E+04    1813       1
      1  1.60000E+03  4.02980E+03  3.72055E-02  1.01860E+02  2.47041E+04    1814       1
      1  1.63614E+03  4.02981E+03  1.00000E+00  1.00000E+02  2.50910E+04    2543       1
      1  2.00000E+03  4.02982E+03  7.08300E-01  8.54150E+01  2.83945E+04    2544       1
      1  2.40000E+03  4.02983E+03  4.76846E-01  7.38423E+01  3.11493E+04    2545       1
      1  2.80000E+03  4.02986E+03  3.00188E-01  6.50094E+01  3.31608E+04    2546       1
      1  3.20000E+03  4.02989E+03  1.75217E-01  5.87609E+01  3.44888E+04    2547       1
      1  3.50000E+03  4.02992E+03  1.55421E-01  5.77710E+01  3.50490E+04    2548       1
      1  3.70000E+03  4.02995E+03  2.01851E-01  6.00926E+01  3.52330E+04    2549       1
      1  3.85000E+03  4.02997E+03  2.54754E-01  6.27377E+01  3.52935E+04    2550       1
      1  3.95000E+03  4.02999E+03  2.86970E-01  6.43485E+01  3.53090E+04    2551       1
      1  4.01000E+03  4.03000E+03  3.00584E-01  6.50292E+01  3.53120E+04    2552       1
      2  7.66000E+02  4.03000E+03  9.99000E-01  3.02459E+02  0.00000E+00     353       1
      2  8.00000E+02  4.02999E+03  9.05911E-01  2.94776E+02  5.22811E+02     354       1
      2  1.20000E+03  4.02985E+03  1.93527E-01  2.35943E+02  5.39533E+03     355       1
      2  1.38087E+03  4.02980E+03  0.00000E+00  2.20000E+02  7.07813E+03     355       1
      2  1.38087E+03  4.02980E+03  1.00000E+00  2.00000E+02  9.33408E+03    1084       1
      2  1.60000E+03  4.02979E+03  5.59675E-01  1.77984E+02  1.19596E+04    1085       1
      2  1.98413E+03  4.02980E+03  1.00000E+00  1.50000E+02  1.56702E+04    1814       1
      2  2.00000E+03  4.02980E+03  9.81821E-01  1.49091E+02  1.58009E+04    1815       1
      2  2.40000E+03  4.02981E+03  5.82269E-01  1.29113E+02  1.86595E+04    1816       1
      2  2.80000E+03  4.02983E+03  2.60757E-01  1.13038E+02  2.08295E+04    1817       1
      2  3.10518E+03  4.02986E+03  1.00000E+00  1.00000E+02  2.20901E+04    2546       1
      2  3.20000E+03  4.02987E+03  9.47979E-01  9.73990E+01  2.23518E+04    2547       1
      2  3.50000E+03  4.02991E+03  7.44555E-01  8.72277E+01  2.29119E+04    2548       1
      2  3.70000E+03  4.02994E+03  6.38060E-01  8.19030E+01  2.30959E+04    2549       1
      2  3.85000E+03  4.02997E+03  5.88178E-01  7.94089E+01  2.31564E+04    2550       1
      2  3.95000E+03  4.02999E+03  5.69654E-01  7.84827E+01  2.31719E+04    2551       1
      2  4.01000E+03  4.03000E+03  5.63748E-01  7.81874E+01  2.31750E+04    2552       1
      3  1.14900E+03  4.03000E+03  9.99000E-01  3.02300E+02  0.00000E+00     354       1
      3  1.20000E+03  4.02998E+03  9.05859E-01  2.94627E+02  5.21973E+02     355       1
      3  1.60000E+03  4.02988E+03  3.71998E-01  2.50557E+02  3.97092E+03     356       1
      3  2.00000E+03  4.02979E+03  3.80695E-02  2.23115E+02  6.63870E+03     357       1
      3  2.05590E+03  4.02978E+03  0.00000E+00  2.20000E+02  6.96695E+03     357       1
      3  2.05590E+03  4.02978E+03  1.00000E+00  2.00000E+02  9.10936E+03    1086       1
      3  2.40000E+03  4.02979E+03  5.53377E-01  1.77669E+02  1.16145E+04    1087       1
      3  2.80000E+03  4.02981E+03  1.31942E-01  1.56597E+02  1.39496E+04    1088       1
      3  2.91164E+03  4.02982E+03  1.00000E+00  1.50000E+02  1.45135E+04    1817       1
      3  3.20000E+03  4.02984E+03  7.46884E-01  1.37344E+02  1.56061E+04    1818       1
      3  3.50000E+03  4.02989E+03  3.85156E-01  1.19258E+02  1.64703E+04    1819       1
      3  3.67021E+03  4.02992E+03  1.00000E+00  1.00000E+02  1.68514E+04    2548       1
      3  3.70000E+03  4.02992E+03  9.78546E-01  9.89273E+01  1.68714E+04    2549       1
      3  3.85000E+03  4.02996E+03  8.48434E-01  9.24217E+01  1.69320E+04    2550       1
      3  3.95000E+03  4.02998E+03  7.90305E-01  8.95152E+01  1.69474E+04    2551       1
      3  4.01000E+03  4.02999E+03  7.69162E-01  8.84581E+01  1.69505E+04    2552       1
      4  1.53200E+03  4.03000E+03  9.99000E-01  3.02060E+02  0.00000E+00     355       1
      4  1.60000E+03  4.02998E+03  9.05756E-01  2.94401E+02  5.20827E+02     356       1
      4  2.00000E+03  4.02989E+03  4.77771E-01  2.59092E+02  3.18861E+03     357       1
      4  2.40000E+03  4.02981E+03  1.79416E-01  2.34608E+02  5.36231E+03     358       1
      4  2.70492E+03  4.02976E+03  0.00000E+00  2.20000E+02  6.78449E+03     358       1
      4  2.70492E+03  4.02976E+03  1.00000E+00  2.00000E+02  8.83654E+03    1087       1
      4  2.80000E+03  4.02976E+03  9.01526E-01  1.95076E+02  9.34454E+03    1088       1
      4  3.20000E+03  4.02981E+03  4.97046E-01  1.74852E+02  1.12215E+04    1089       1
      4  3.50000E+03  4.02985E+03  7.12183E-02  1.53561E+02  1.24405E+04    1090       1
      4  3.52673E+03  4.02985E+03  1.00000E+00  1.50000E+02  1.25450E+04    1819       1
      4  3.70000E+03  4.02989E+03  7.17409E-01  1.35870E+02  1.29207E+04    1820       1
      4  3.85000E+03  4.02994E+03  1.99904E-01  1.09995E+02  1.32018E+04    1821       1
      4  3.87110E+03  4.02994E+03  1.00000E+00  1.00000E+02  1.32398E+04    2550       1
      4  3.95000E+03  4.02997E+03  9.42709E-01  9.71355E+01  1.32504E+04    2551       1
      4  4.01000E+03  4.02999E+03  9.11042E-01  9.55521E+01  1.32535E+04    2552       1
      5  1.91500E+03  4.03000E+03  9.99000E-01  3.01740E+02  0.00000E+00     356       1
      5  2.00000E+03  4.02998E+03  9.05570E-01  2.94095E+02  5.19526E+02     357       1
      5  2.40000E+03  4.02990E+03  5.47171E-01  2.64550E+02  2.69322E+03     358       1
      5  2.80000E+03  4.02983E+03  2.77548E-01  2.42463E+02  4.52720E+03     359       1
      5  3.20000E+03  4.02976E+03  5.79505E-02  2.24657E+02  6.11530E+03     360       1
      5  3.31355E+03  4.02974E+03  0.00000E+00  2.20000E+02  6.52959E+03     360       1
      5  3.31355E+03  4.02974E+03  1.00000E+00  2.00000E+02  8.33969E+03    1089       1
      5  3.50000E+03  4.02978E+03  8.23670E-01  1.91184E+02  9.08494E+03    1090       1
      5  3.70000E+03  4.02984E+03  5.18556E-01  1.75928E+02  9.88584E+03    1091       1
      5  3.83824E+03  4.02988E+03  1.00000E+00  1.50000E+02  1.05075E+04    1820       1
      5  3.85000E+03  4.02988E+03  9.77202E-01  1.48860E+02  1.05285E+04    1821       1
      5  3.95000E+03  4.02994E+03  5.38257E-01  1.26913E+02  1.07160E+04    1822       1
      5  3.97784E+03  4.02996E+03  1.00000E+00  1.00000E+02  1.07763E+04    2551       1
      5  4.01000E+03  4.02997E+03  9.85599E-01  9.92799E+01  1.07775E+04    2552       1
      6  2.29800E+03  4.03000E+03  9.99000E-01  3.01338E+02  0.00000E+00     357       1
      6  2.40000E+03  4.02998E+03  9.05246E-01  2.93704E+02  5.18320E+02     358       1
      6  2.80000E+03  4.02991E+03  5.95435E-01  2.68192E+02  2.35230E+03     359       1
      6  3.20000E+03  4.02984E+03  3.47869E-01  2.47958E+02  3.94040E+03     360       1
      6  3.50000E+03  4.02979E+03  1.85961E-01  2.34841E+02  5.00819E+03     361       1
      6  3.70000E+03  4.02976E+03  8.50126E-02  2.26747E+02  5.67251E+03     362       1
      6  3.85000E+03  4.02974E+03  1.22969E-02  2.20972E+02  6.14910E+03     363       1
      6  3.87593E+03  4.02974E+03  0.00000E+00  2.20000E+02  6.22967E+03     363       1
      6  3.87593E+03  4.02974E+03  1.00000E+00  2.00000E+02  7.89513E+03    1092       1
      6  3.95000E+03  4.02980E+03  8.58606E-01  1.92930E+02  8.34136E+03    1093       1
      6  4.01000E+03  4.02986E+03  5.58085E-01  1.77904E+02  8.81858E+03    1094       1
      6  4.04962E+03  4.02990E+03  1.00000E+00  1.50000E+02  9.25495E+03    1823       1
      6  4.04078E+03  4.02997E+03  1.00000E+00  1.00000E+02  9.36930E+03    2552       1
      7  2.68100E+03  4.03000E+03  9.99000E-01  3.00854E+02  0.00000E+00     358       1
      7  2.80000E+03  4.02998E+03  9.04698E-01  2.93222E+02  5.17598E+02     359       1
      7  3.20000E+03  4.02991E+03  6.29924E-01  2.70627E+02  2.10570E+03     360       1
      7  3.50000E+03  4.02986E+03  4.53492E-01  2.56191E+02  3.17349E+03     361       1
      7  3.70000E+03  4.02983E+03  3.45039E-01  2.47384E+02  3.83781E+03     362       1
      7  3.85000E+03  4.02981E+03  2.67523E-01  2.41145E+02  4.31440E+03     363       1
      7  3.95000E+03  4.02980E+03  2.17713E-01  2.37156E+02  4.62262E+03     364       1
      7  4.01000E+03  4.02980E+03  1.88654E-01  2.34836E+02  4.80407E+03     365       1
      7  4.05000E+03  4.02979E+03  1.69671E-01  2.33327E+02  4.92360E+03     366       1
      7  4.11000E+03  4.02979E+03  1.41836E-01  2.31126E+02  5.10078E+03     367       1
      7  4.21000E+03  4.02979E+03  9.73675E-02  2.27622E+02  5.39041E+03     368       1
      7  4.36000E+03  4.02979E+03  3.58844E-02  2.22800E+02  5.81149E+03     369       1
      7  4.45900E+03  4.02979E+03  0.00000E+00  2.20000E+02  6.08013E+03     369       1
      7  4.45900E+03  4.02979E+03  1.00000E+00  2.00000E+02  8.02450E+03    1098       1
      7  4.36000E+03  4.02988E+03  5.34347E-01  1.76717E+02  9.56413E+03    1097       1
      7  4.32371E+03  4.02991E+03  1.00000E+00  1.50000E+02  1.02215E+04    1826       1
      7  4.21000E+03  4.02995E+03  5.80507E-01  1.29025E+02  1.05340E+04    1825       1
      7  4.16039E+03  4.02997E+03  1.00000E+00  1.00000E+02  1.06678E+04    2554       1
      7  4.11000E+03  4.02998E+03  9.66839E-01  9.83419E+01  1.06738E+04    2553       1
      7  4.05000E+03  4.02999E+03  9.33188E-01  9.66594E+01  1.06769E+04    2552       1
      8  3.06400E+03  4.03000E+03  9.99000E-01  3.00289E+02  0.00000E+00     359       1
      8  3.20000E+03  4.02998E+03  9.03798E-01  2.92638E+02  5.17953E+02     360       1
      8  3.50000E+03  4.02993E+03  7.13265E-01  2.76922E+02  1.58574E+03     361       1
      8  3.70000E+03  4.02989E+03  5.97523E-01  2.67423E+02  2.25006E+03     362       1
      8  3.85000E+03  4.02987E+03  5.15347E-01  2.60734E+02  2.72665E+03     363       1
      8  3.95000E+03  4.02986E+03  4.62654E-01  2.56458E+02  3.03488E+03     364       1
      8  4.01000E+03  4.02986E+03  4.31896E-01  2.53966E+02  3.21632E+03     365       1
      8  4.05000E+03  4.02986E+03  4.11776E-01  2.52342E+02  3.33586E+03     366       1
      8  4.11000E+03  4.02985E+03  3.82213E-01  2.49982E+02  3.51304E+03     367       1
      8  4.21000E+03  4.02985E+03  3.34752E-01  2.46204E+02  3.80266E+03     368       1
      8  4.36000E+03  4.02985E+03  2.68367E-01  2.40937E+02  4.22375E+03     369       1
      8  4.56000E+03  4.02985E+03  1.89873E-01  2.34741E+02  4.75995E+03     370       1
      8  4.86000E+03  4.02986E+03  9.45325E-02  2.27285E+02  5.50919E+03     371       1
      8  5.26000E+03  4.02987E+03  6.49932E-03  2.20495E+02  6.40656E+03     372       1
      8  5.30649E+03  4.02987E+03  0.00000E+00  2.20000E+02  6.50302E+03     372       1
      8  5.30649E+03  4.02987E+03  1.00000E+00  2.00000E+02  1.04842E+04    1101       1
      8  5.26000E+03  4.02989E+03  7.34039E-01  1.86702E+02  1.31351E+04    1100       1
      8  5.15519E+03  4.02993E+03  1.00000E+00  1.50000E+02  1.74886E+04    1829       1
      8  4.86000E+03  4.02995E+03  4.22355E-01  1.21118E+02  2.06974E+04    1828       1
      8  4.70526E+03  4.02997E+03  1.00000E+00  1.00000E+02  2.17346E+04    2557       1
      8  4.56000E+03  4.02997E+03  8.79863E-01  9.39931E+01  2.20441E+04    2556       1
      8  4.36000E+03  4.02998E+03  7.17028E-01  8.58514E+01  2.22648E+04    2555       1
      8  4.21000E+03  4.02999E+03  6.44180E-01  8.22090E+01  2.23302E+04    2554       1
      8  4.11000E+03  4.03000E+03  6.16439E-01  8.08219E+01  2.23461E+04    2553       1
      8  4.05000E+03  4.03000E+03  6.07218E-01  8.03609E+01  2.23492E+04    2552       1
      9  3.44700E+03  4.03000E+03  9.99000E-01  2.99726E+02  0.00000E+00     360       1
      9  3.50000E+03  4.02999E+03  9.64855E-01  2.97001E+02  1.82536E+02     361       1
      9  3.70000E+03  4.02996E+03  8.42056E-01  2.86831E+02  8.46856E+02     362       1
      9  3.85000E+03  4.02994E+03  7.55365E-01  2.79705E+02  1.32344E+03     363       1
      9  3.95000E+03  4.02993E+03  6.99881E-01  2.75152E+02  1.63167E+03     364       1
      9  4.01000E+03  4.02992E+03  6.67476E-01  2.72493E+02  1.81312E+03     365       1
      9  4.05000E+03  4.02992E+03  6.46255E-01  2.70759E+02  1.93265E+03     366       1
      9  4.11000E+03  4.02991E+03  6.15020E-01  2.68244E+02  2.10983E+03     367       1
      9  4.21000E+03  4.02991E+03  5.64660E-01  2.64201E+02  2.39946E+03     368       1
      9  4.36000E+03  4.02991E+03  4.93528E-01  2.58504E+02  2.82054E+03     369       1
      9  4.56000E+03  4.02991E+03  4.07821E-01  2.51661E+02  3.35674E+03     370       1
      9  4.86000E+03  4.02992E+03  3.00026E-01  2.43120E+02  4.10598E+03     371       1
      9  5.26000E+03  4.02993E+03  1.93686E-01  2.34755E+02  5.00335E+03     372       1
      9  5.66000E+03  4.02994E+03  1.24376E-01  2.29333E+02  5.79089E+03     373       1
      9  6.06000E+03  4.02995E+03  8.52277E-02  2.26284E+02  6.47735E+03     374       1
      9  6.46000E+03  4.02996E+03  7.01993E-02  2.25071E+02  7.07221E+03     375       1
      9  6.86000E+03  4.02997E+03  7.44395E-02  2.25248E+02  7.58451E+03     376       1
      9  7.26000E+03  4.02998E+03  9.41523E-02  2.26447E+02  8.02250E+03     377       1
      9  7.66000E+03  4.02998E+03  1.26367E-01  2.28352E+02  8.39347E+03     378       1
      9  7.98743E+03  4.02998E+03  1.00000E+00  2.83272E+02  8.96119E+03     378       1
     10  3.83000E+03  4.03000E+03  9.99000E-01  2.98963E+02  0.00000E+00     362       1
     10  3.85000E+03  4.03000E+03  9.87130E-01  2.98024E+02  6.26372E+01     363       1
     10  3.95000E+03  4.02999E+03  9.28950E-01  2.93203E+02  3.70865E+02     364       1
     10  4.01000E+03  4.02998E+03  8.94955E-01  2.90383E+02  5.52310E+02     365       1
     10  4.05000E+03  4.02998E+03  8.72671E-01  2.88543E+02  6.71846E+02     366       1
     10  4.11000E+03  4.02997E+03  8.39820E-01  2.85878E+02  8.49022E+02     367       1
     10  4.21000E+03  4.02997E+03  7.86663E-01  2.81579E+02  1.13865E+03     368       1
     10  4.36000E+03  4.02997E+03  7.10946E-01  2.75466E+02  1.55974E+03     369       1
     10  4.56000E+03  4.02997E+03  6.18275E-01  2.68000E+02  2.09593E+03     370       1
     10  4.86000E+03  4.02998E+03  4.98454E-01  2.58411E+02  2.84517E+03     371       1
     10  5.26000E+03  4.02998E+03  3.74435E-01  2.48524E+02  3.74254E+03     372       1
     10  5.66000E+03  4.02999E+03  2.87157E-01  2.41548E+02  4.53009E+03     373       1
     10  6.06000E+03  4.03001E+03  2.30730E-01  2.37013E+02  5.21655E+03     374       1
     10  6.46000E+03  4.03001E+03  1.99556E-01  2.34415E+02  5.81140E+03     375       1
     10  6.86000E+03  4.03002E+03  1.88931E-01  2.33319E+02  6.32371E+03     376       1
     10  7.26000E+03  4.03003E+03  1.95056E-01  2.33356E+02  6.76169E+03     377       1
     10  7.66000E+03  4.03003E+03  2.14892E-01  2.34204E+02  7.13266E+03     378       1
     10  7.95423E+03  4.03003E+03  1.00000E+00  2.83272E+02  7.57509E+03     378       1
     11  4.21300E+03  4.03000E+03  9.99000E-01  2.97939E+02  0.00000E+00     368       1
     11  4.36000E+03  4.03000E+03  9.20511E-01  2.91815E+02  4.12525E+02     369       1
     11  4.56000E+03  4.03000E+03  8.21127E-01  2.83749E+02  9.48720E+02     370       1
     11  4.86000E+03  4.03000E+03  6.89713E-01  2.73149E+02  1.69796E+03     371       1
     11  5.26000E+03  4.03001E+03  5.48656E-01  2.61797E+02  2.59533E+03     372       1
     11  5.66000E+03  4.03002E+03  4.44059E-01  2.53322E+02  3.38287E+03     373       1
     11  6.06000E+03  4.03003E+03  3.70977E-01  2.47354E+02  4.06933E+03     374       1
     11  6.46000E+03  4.03004E+03  3.24241E-01  2.43422E+02  4.66419E+03     375       1
     11  6.86000E+03  4.03005E+03  2.99286E-01  2.41099E+02  5.17650E+03     376       1
     11  7.26000E+03  4.03005E+03  2.92314E-01  2.40016E+02  5.61448E+03     377       1
     11  7.66000E+03  4.03006E+03  3.00219E-01  2.39843E+02  5.98545E+03     378       1
     11  7.92223E+03  4.03006E+03  1.00000E+00  2.83272E+02  6.33999E+03     378       1
     12  4.59600E+03  4.03000E+03  9.99000E-01  2.96983E+02  0.00000E+00     370       1
     12  4.86000E+03  4.03000E+03  8.74559E-01  2.87393E+02  6.56170E+02     371       1
     12  5.26000E+03  4.03001E+03  7.17034E-01  2.74624E+02  1.55354E+03     372       1
     12  5.66000E+03  4.03002E+03  5.95699E-01  2.64701E+02  2.34108E+03     373       1
     12  6.06000E+03  4.03003E+03  5.06520E-01  2.57349E+02  3.02754E+03     374       1
     12  6.46000E+03  4.03004E+03  4.44743E-01  2.52126E+02  3.62240E+03     375       1
     12  6.86000E+03  4.03005E+03  4.05941E-01  2.48618E+02  4.13470E+03     376       1
     12  7.26000E+03  4.03005E+03  3.86311E-01  2.46452E+02  4.57269E+03     377       1
     12  7.66000E+03  4.03006E+03  3.82685E-01  2.45294E+02  4.94366E+03     378       1
     12  7.89132E+03  4.03006E+03  1.00000E+00  2.83272E+02  5.23086E+03     378       1
     13  4.97900E+03  4.03000E+03  9.99000E-01  2.96104E+02  0.00000E+00     371       1
     13  5.26000E+03  4.03001E+03  8.80894E-01  2.87106E+02  6.19678E+02     372       1
     13  5.66000E+03  4.03002E+03  7.43271E-01  2.75775E+02  1.40722E+03     373       1
     13  6.06000E+03  4.03003E+03  6.38427E-01  2.67075E+02  2.09368E+03     374       1
     13  6.46000E+03  4.03004E+03  5.62013E-01  2.60597E+02  2.68854E+03     375       1
     13  6.86000E+03  4.03004E+03  5.09734E-01  2.55936E+02  3.20084E+03     376       1
     13  7.26000E+03  4.03005E+03  4.77786E-01  2.52716E+02  3.63883E+03     377       1
     13  7.66000E+03  4.03005E+03  4.62938E-01  2.50599E+02  4.00980E+03     378       1
     13  7.86124E+03  4.03005E+03  1.00000E+00  2.83272E+02  4.24242E+03     378       1
     14  5.36200E+03  4.03000E+03  9.99000E-01  2.94965E+02  0.00000E+00     372       1
     14  5.66000E+03  4.03001E+03  8.87917E-01  2.86629E+02  5.77711E+02     373       1
     14  6.06000E+03  4.03002E+03  7.67720E-01  2.76609E+02  1.26417E+03     374       1
     14  6.46000E+03  4.03003E+03  6.76959E-01  2.68901E+02  1.85902E+03     375       1
     14  6.86000E+03  4.03003E+03  6.11470E-01  2.63108E+02  2.37133E+03     376       1
     14  7.26000E+03  4.03004E+03  5.67448E-01  2.58856E+02  2.80932E+03     377       1
     14  7.66000E+03  4.03004E+03  5.41601E-01  2.55798E+02  3.18029E+03     378       1
     14  7.83176E+03  4.03004E+03  1.00000E+00  2.83272E+02  3.36690E+03     378       1
     15  5.74500E+03  4.03000E+03  9.99000E-01  2.93662E+02  0.00000E+00     373       1
     15  6.06000E+03  4.03001E+03  8.95162E-01  2.86006E+02  5.33450E+02     374       1
     15  6.46000E+03  4.03002E+03  7.90260E-01  2.77085E+02  1.12830E+03     375       1
     15  6.86000E+03  4.03002E+03  7.11750E-01  2.70177E+02  1.64061E+03     376       1
     15  7.26000E+03  4.03003E+03  6.55827E-01  2.64907E+02  2.07860E+03     377       1
     15  7.66000E+03  4.03003E+03  6.19137E-01  2.60923E+02  2.44957E+03     378       1
     15  7.80270E+03  4.03003E+03  1.00000E+00  2.83272E+02  2.59632E+03     378       1
     16  6.12800E+03  4.03000E+03  9.99000E-01  2.92163E+02  0.00000E+00     374       1
     16  6.46000E+03  4.03001E+03  9.02419E-01  2.85187E+02  4.88388E+02     375       1
     16  6.86000E+03  4.03002E+03  8.11020E-01  2.77176E+02  1.00070E+03     376       1
     16  7.26000E+03  4.03002E+03  7.43316E-01  2.70898E+02  1.43868E+03     377       1
     16  7.66000E+03  4.03002E+03  6.95894E-01  2.65996E+02  1.80965E+03     378       1
     16  7.77394E+03  4.03002E+03  1.00000E+00  2.83272E+02  1.92116E+03     378       1
     17  6.51100E+03  4.03000E+03  9.99000E-01  2.90428E+02  0.00000E+00     375       1
     17  6.86000E+03  4.03001E+03  9.09594E-01  2.84125E+02  4.43278E+02     376       1
     17  7.26000E+03  4.03001E+03  8.30192E-01  2.76847E+02  8.81265E+02     377       1
     17  7.66000E+03  4.03001E+03  7.72111E-01  2.71034E+02  1.25224E+03     378       1
     17  7.74538E+03  4.03001E+03  1.00000E+00  2.83272E+02  1.33209E+03     378       1
     18  6.89400E+03  4.03000E+03  9.99000E-01  2.88406E+02  0.00000E+00     376       1
     18  7.26000E+03  4.03000E+03  9.16647E-01  2.82767E+02  3.98482E+02     377       1
     18  7.66000E+03  4.03001E+03  8.47960E-01  2.76047E+02  7.69452E+02     378       1
     18  7.71696E+03  4.03001E+03  1.00000E+00  2.83272E+02  8.20547E+02     378       1
     19  7.27700E+03  4.03000E+03  9.99000E-01  2.86030E+02  0.00000E+00     377       1
     19  7.66000E+03  4.03000E+03  9.23561E-01  2.81044E+02  3.54164E+02     378       1
     19  7.68864E+03  4.03000E+03  1.00000E+00  2.83272E+02  3.78871E+02     378       1
     20  7.65960E+03  4.03000E+03  9.99000E-01  2.86030E+02  0.00000E+00     377       1
     20  7.66000E+03  4.03000E+03  9.98921E-01  2.86025E+02  3.47671E-01     378       1
     20  7.66040E+03  4.03000E+03  1.00000E+00  2.83272E+02  6.83924E-01     378       1
