@[MODPATH-PLOT Version 3.00 (V3, Release 2, 6-2000)]
@
@-----------------------------------------------------------------------------
@  File: path-t2.rsp
@
@  Response file for transient flow sample problem: run 2
@-----------------------------------------------------------------------------
@
* ENTER THE NAME FILE:
@RESPONSE: HELP LABEL = 4.2.1
../data/demo-t2.mpn
* DEFINE A REFERENCE TIME FOR RELEASING PARTICLES ...
*   SELECT AN OPTION:
*      1 = SPECIFY BY ENTERING A STRESS PERIOD AND TIME STEP
*      2 = SPECIFY BY ENTERING A VALUE OF SIMULATION TIME
@RESPONSE: HELP LABEL = 2.1.2A
2
*   ENTER: REFERENCE TIME  &  TIME UNITS CONVERSION FACTOR
@RESPONSE: HELP LABEL = 2.1.31
503 365
* STOP COMPUTING PATHS AT A SPECIFIED VALUE OF TRACKING TIME ?
@RESPONSE: HELP LABEL = 2.1.42
n
* SPECIFY AN OPTION FOR READING HEAD AND FLOW RATE DATA:
*   1 = READ STANDARD MODFLOW UNFORMATTED FILES & GENERATE A
*       COMPOSITE BUDGET FILE
*   2 = READ FROM AN EXISTING COMPOSITE BUDGET FILE
@RESPONSE: HELP LABEL = 2.1.3
2
* SELECT THE OUTPUT MODE:
*     1 = ENDPOINTS
*     2 = PATHLINE
*     3 = TIME SERIES
@RESPONSE: HELP LABEL = 2.1.6
1
* HOW ARE STARTING LOCATIONS TO BE ENTERED?
*     1 = FROM AN EXISTING DATA FILE
*     2 = ARRAYS OF PARTICLES WILL BE GENERATED INTERNALLY
@RESPONSE: HELP LABEL = 2.1.9
2
* DO YOU WANT TO STORE INTERNALLY-GENERATED STARTING LOCATIONS ON DISK ?
@RESPONSE: HELP LABEL = 2.1.44
n
* IN WHICH DIRECTION SHOULD PARTICLES BE TRACKED?
*     1 = FORWARD IN THE DIRECTION OF FLOW
*     2 = BACKWARDS TOWARD RECHARGE LOCATIONS
@RESPONSE: HELP LABEL = 2.1.10
2
* HOW SHOULD PARTICLES BE TREATED WHEN THEY ENTER CELLS WITH INTERNAL SINKS ?
*     1 = PASS THROUGH WEAK SINK CELLS
*     2 = STOP AT WEAK SINK CELLS
*     3 = STOP AT WEAK SINK CELLS THAT EXCEED A SPECIFIED STRENGTH
@RESPONSE: HELP LABEL = 2.1.11
1
* DO YOU WANT TO STOP PARTICLES WHENEVER THEY ENTER ONE SPECIFIC ZONE ?
@RESPONSE: HELP LABEL = 2.1.45
n
*  STARTING LOCATIONS WILL BE GENERATED FOR 3-D SUBREGIONS.
* 
* SHOULD PARTICLES BE PLACED IN CONSTANT HEAD CELLS ?
@RESPONSE: HELP LABEL = 2.1.46
n
*  ENTER DATA FOR SUBREGION  1 :
* 
* DEFINE THE SUBREGION BY ENTERING THE MINIMUM AND MAXIMUM J,I,K COORDINATES.
*   ENTER:  MINIMUM J, MAXIMUM J, MINIMUM I, MAXIMUM I, MINIMUM K, MAXIMUM K
@RESPONSE: HELP LABEL = 2.1.14
14 14 14 14 1 1
* WHERE SHOULD THE PARTICLES BE LOCATED ?
*   1 = WITHIN A CELL
*   2 = ON ONE OR MORE OF THE CELL FACES
@RESPONSE: HELP LABEL = 2.1.15
2
* WHAT CELL FACES DO YOU WANT TO PLACE PARTICLES ON ?
*   (ENTER ALL THE FACE NUMBERS ON A SINGLE LINE)
@RESPONSE: HELP LABEL = 2.1.47
1 2 3 4 5 6
* ENTER A 2-D ARRAY OF PARTICLES FOR FACE 1:  NY  NZ
@RESPONSE: HELP LABEL = 2.1.17
7 7
* ENTER A 2-D ARRAY OF PARTICLES FOR FACE 2:  NY  NZ
@RESPONSE: HELP LABEL = 2.1.18
7 7
* ENTER A 2-D ARRAY OF PARTICLES FOR FACE 3:  NX  NZ
@RESPONSE: HELP LABEL = 2.1.19
7 7
* ENTER A 2-D ARRAY OF PARTICLES FOR FACE 4:  NX  NZ
@RESPONSE: HELP LABEL = 2.1.20
7 7
* ENTER A 2-D ARRAY OF PARTICLES FOR FACE 5:  NX  NY
@RESPONSE: HELP LABEL = 2.1.21
2 2
* ENTER A 2-D ARRAY OF PARTICLES FOR FACE 6:  NX  NY
@RESPONSE: HELP LABEL = 2.1.22
2 2
*     204 PARTICLES USED OUT OF 500000 MAXIMUM
* DO YOU WANT TO SPECIFY ANOTHER SUBREGION ?
@RESPONSE: HELP LABEL = 2.1.53
n
* DO YOU WANT TO COMPUTE VOLUMETRIC BUDGETS FOR ALL CELLS ?
@RESPONSE: HELP LABEL = 3.1.4
n
*  DO YOU WANT TO CHECK DATA CELL BY CELL ?
@RESPONSE: HELP LABEL = 3.1.2
n
* SUMMARIZE FINAL STATUS OF PARTICLES IN SUMMARY.PTH FILE ?
@RESPONSE: HELP LABEL = 3.1.3
n
