@ [ MODPATH 5.0 (TREF=   0.182865E+06 ) ]
      1  4.03000E+03  4.01000E+03  5.00000E-01  2.46469E+02  0.00000E+00   14   14    1       5
      1  4.03000E+03  4.01000E+03  5.00000E-01  2.46469E+02  1.24139E-04   14   15    1       5
      1  4.02751E+03  3.95000E+03  5.00131E-01  2.50801E+02  3.64307E+00   14   16    1       5
      1  4.01444E+03  3.85000E+03  5.01634E-01  2.52995E+02  2.11328E+01   14   17    1       5
      1  4.01000E+03  3.82197E+03  5.02586E-01  2.54389E+02  2.95694E+01   13   17    1       5
      1  3.98763E+03  3.73474E+03  5.06568E-01  2.54745E+02  6.44118E+01   13   17    1       5
      2  4.03000E+03  4.05000E+03  5.00000E-01  2.46469E+02  0.00000E+00   14   14    1       5
      2  4.03000E+03  4.05000E+03  5.00000E-01  2.46469E+02  1.24139E-04   14   13    1       5
      2  4.02751E+03  4.11000E+03  5.00131E-01  2.50801E+02  3.64307E+00   14   12    1       5
      2  4.01445E+03  4.21000E+03  5.01634E-01  2.52995E+02  2.11328E+01   14   11    1       5
      2  4.01000E+03  4.23809E+03  5.02588E-01  2.54389E+02  2.95879E+01   13   11    1       5
      2  3.98765E+03  4.32527E+03  5.06568E-01  2.54745E+02  6.44118E+01   13   11    1       5
      1  3.98763E+03  3.73474E+03  5.06568E-01  2.55598E+02  6.44118E+01   13   17    1       4
      1  3.97282E+03  3.70000E+03  5.08684E-01  2.55747E+02  8.25529E+01   13   18    1       4
      1  3.95000E+03  3.63460E+03  5.14003E-01  2.57059E+02  1.23201E+02   12   18    1       4
      1  3.87328E+03  3.50279E+03  5.29118E-01  2.58300E+02  2.36176E+02   12   18    1       4
      2  3.98765E+03  4.32527E+03  5.06568E-01  2.55598E+02  6.44118E+01   13   11    1       4
      2  3.97284E+03  4.36000E+03  5.08684E-01  2.55747E+02  8.25511E+01   13   10    1       4
      2  3.95000E+03  4.42545E+03  5.14007E-01  2.57060E+02  1.23233E+02   12   10    1       4
      2  3.87330E+03  4.55722E+03  5.29117E-01  2.58300E+02  2.36176E+02   12   10    1       4
      1  3.87328E+03  3.50279E+03  5.29118E-01  2.59099E+02  2.36176E+02   12   18    1       3
      1  3.87106E+03  3.50000E+03  5.29522E-01  2.59129E+02  2.39097E+02   12   19    1       3
      1  3.85000E+03  3.46220E+03  5.35536E-01  2.60329E+02  2.80598E+02   11   19    1       3
      1  3.82840E+03  3.43128E+03  5.41619E-01  2.60997E+02  3.22059E+02   11   19    1       3
      2  3.87330E+03  4.55722E+03  5.29117E-01  2.59099E+02  2.36176E+02   12   10    1       3
      2  3.87109E+03  4.56000E+03  5.29521E-01  2.59129E+02  2.39091E+02   12    9    1       3
      2  3.85000E+03  4.59785E+03  5.35543E-01  2.60330E+02  2.80651E+02   11    9    1       3
      2  3.82843E+03  4.62873E+03  5.41618E-01  2.60997E+02  3.22059E+02   11    9    1       3
      1  3.82840E+03  3.43128E+03  5.41619E-01  2.61862E+02  3.22059E+02   11   19    1       2
      1  3.80780E+03  3.40694E+03  5.48225E-01  2.62373E+02  3.65000E+02   11   19    1       2
      2  3.82843E+03  4.62873E+03  5.41618E-01  2.61862E+02  3.22059E+02   11    9    1       2
      2  3.80783E+03  4.65307E+03  5.48225E-01  2.62373E+02  3.65000E+02   11    9    1       2
      1  3.80780E+03  3.40694E+03  5.48225E-01  2.63355E+02  3.65000E+02   11   19    1       1
      1  3.70000E+03  3.40148E+03  6.05317E-01  2.67870E+02  7.10865E+02   10   19    1       1
      1  3.50000E+03  3.39133E+03  7.18525E-01  2.77054E+02  1.37984E+03    9   19    1       1
      1  3.20000E+03  3.37621E+03  9.08760E-01  2.92555E+02  2.45687E+03    8   19    1       1
      1  3.07060E+03  3.37023E+03  1.00000E+00  3.00399E+02  2.95374E+03    8   19    1       1
      2  3.80783E+03  4.65307E+03  5.48225E-01  2.63355E+02  3.65000E+02   11    9    1       1
      2  3.70000E+03  4.65853E+03  6.05332E-01  2.67871E+02  7.10954E+02   10    9    1       1
      2  3.50000E+03  4.66869E+03  7.18540E-01  2.77055E+02  1.37992E+03    9    9    1       1
      2  3.20000E+03  4.68380E+03  9.08774E-01  2.92557E+02  2.45695E+03    8    9    1       1
      2  3.07063E+03  4.68978E+03  1.00000E+00  3.00399E+02  2.95374E+03    8    9    1       1
