@ [ MODPATH Version 4.00 (V4, Release 1, 2-2000) [PC] (TREF=   0.182865E+06 ) ]
      1  4.03000E+03  4.01000E+03  5.00000E-01  2.46469E+02  0.00000E+00   14   14    1       5
      1  4.03000E+03  4.01000E+03  5.00000E-01  2.46469E+02  1.24102E-04   14   15    1       5
      1  4.02751E+03  3.95000E+03  5.00130E-01  2.50800E+02  3.64297E+00   14   16    1       5
      1  4.01444E+03  3.85000E+03  5.01634E-01  2.52994E+02  2.11325E+01   14   17    1       5
      1  4.01000E+03  3.82193E+03  5.02587E-01  2.54388E+02  2.95821E+01   13   17    1       5
      1  3.98764E+03  3.73473E+03  5.06567E-01  2.54744E+02  6.44118E+01   13   17    1       5
      2  4.03000E+03  4.05000E+03  5.00000E-01  2.46469E+02  0.00000E+00   14   14    1       5
      2  4.03000E+03  4.05000E+03  5.00000E-01  2.46469E+02  1.24102E-04   14   13    1       5
      2  4.02751E+03  4.11000E+03  5.00130E-01  2.50800E+02  3.64298E+00   14   12    1       5
      2  4.01444E+03  4.21000E+03  5.01634E-01  2.52994E+02  2.11325E+01   14   11    1       5
      2  4.01000E+03  4.23807E+03  5.02587E-01  2.54388E+02  2.95840E+01   13   11    1       5
      2  3.98764E+03  4.32527E+03  5.06567E-01  2.54744E+02  6.44118E+01   13   11    1       5
      1  3.98764E+03  3.73473E+03  5.06567E-01  2.55597E+02  6.44118E+01   13   17    1       4
      1  3.97284E+03  3.70000E+03  5.08683E-01  2.55746E+02  8.25498E+01   13   18    1       4
      1  3.95000E+03  3.63455E+03  5.14006E-01  2.57058E+02  1.23231E+02   12   18    1       4
      1  3.87331E+03  3.50278E+03  5.29116E-01  2.58299E+02  2.36176E+02   12   18    1       4
      2  3.98764E+03  4.32527E+03  5.06567E-01  2.55597E+02  6.44118E+01   13   11    1       4
      2  3.97284E+03  4.36000E+03  5.08683E-01  2.55746E+02  8.25498E+01   13   10    1       4
      2  3.95000E+03  4.42546E+03  5.14007E-01  2.57058E+02  1.23236E+02   12   10    1       4
      2  3.87331E+03  4.55722E+03  5.29116E-01  2.58299E+02  2.36176E+02   12   10    1       4
      1  3.87331E+03  3.50278E+03  5.29116E-01  2.59098E+02  2.36176E+02   12   18    1       3
      1  3.87110E+03  3.50000E+03  5.29519E-01  2.59127E+02  2.39085E+02   12   19    1       3
      1  3.85000E+03  3.46213E+03  5.35544E-01  2.60328E+02  2.80663E+02   11   19    1       3
      1  3.82844E+03  3.43126E+03  5.41618E-01  2.60995E+02  3.22059E+02   11   19    1       3
      2  3.87331E+03  4.55722E+03  5.29116E-01  2.59098E+02  2.36176E+02   12   10    1       3
      2  3.87111E+03  4.56000E+03  5.29519E-01  2.59127E+02  2.39084E+02   12    9    1       3
      2  3.85000E+03  4.59788E+03  5.35545E-01  2.60328E+02  2.80672E+02   11    9    1       3
      2  3.82844E+03  4.62874E+03  5.41617E-01  2.60995E+02  3.22059E+02   11    9    1       3
      1  3.82844E+03  3.43126E+03  5.41618E-01  2.61861E+02  3.22059E+02   11   19    1       2
      1  3.80784E+03  3.40692E+03  5.48224E-01  2.62371E+02  3.65000E+02   11   19    1       2
      2  3.82844E+03  4.62874E+03  5.41617E-01  2.61861E+02  3.22059E+02   11    9    1       2
      2  3.80784E+03  4.65309E+03  5.48223E-01  2.62371E+02  3.65000E+02   11    9    1       2
      1  3.80784E+03  3.40692E+03  5.48224E-01  2.63353E+02  3.65000E+02   11   19    1       1
      1  3.70000E+03  3.40146E+03  6.05349E-01  2.67870E+02  7.11041E+02   10   19    1       1
      1  3.50000E+03  3.39130E+03  7.18583E-01  2.77056E+02  1.38011E+03    9   19    1       1
      1  3.20000E+03  3.37620E+03  9.08857E-01  2.92560E+02  2.45728E+03    8   19    1       1
      1  3.07076E+03  3.37023E+03  1.00000E+00  3.00396E+02  2.95359E+03    8   19    1       1
      2  3.80784E+03  4.65309E+03  5.48223E-01  2.63353E+02  3.65000E+02   11    9    1       1
      2  3.70000E+03  4.65855E+03  6.05347E-01  2.67870E+02  7.11028E+02   10    9    1       1
      2  3.50000E+03  4.66873E+03  7.18575E-01  2.77056E+02  1.38006E+03    9    9    1       1
      2  3.20000E+03  4.68387E+03  9.08844E-01  2.92559E+02  2.45721E+03    8    9    1       1
      2  3.07074E+03  4.68986E+03  1.00000E+00  3.00396E+02  2.95359E+03    8    9    1       1
