@ [ MODPATH 5.0 (TREF=   0.000000E+00 ) ]
      1  3.83000E+02  4.03000E+03  9.99000E-01  3.02542E+02  0.00000E+00    1   14    1       1
      1  4.00000E+02  4.03000E+03  9.05963E-01  2.94855E+02  5.23104E+02    2   14    1       1
      1  6.93472E+02  4.02999E+03  0.00000E+00  2.20000E+02  7.14528E+03    2   14    1       1
      1  6.93472E+02  4.02999E+03  1.00000E+00  2.00000E+02  9.45334E+03    2   14    2       1
      1  8.00000E+02  4.02998E+03  5.60658E-01  1.78033E+02  1.21372E+04    3   14    2       1
      1  9.86598E+02  4.02998E+03  1.00000E+00  1.50000E+02  1.60431E+04    3   14    3       1
      1  1.20000E+03  4.02997E+03  5.65037E-01  1.28252E+02  1.96046E+04    4   14    3       1
      1  1.60000E+03  4.02997E+03  3.78349E-02  1.01892E+02  2.47005E+04    5   14    3       1
      1  1.63676E+03  4.02997E+03  1.00000E+00  1.00000E+02  2.50939E+04    5   14    4       1
      1  2.00000E+03  4.02998E+03  7.08890E-01  8.54445E+01  2.83908E+04    6   14    4       1
      1  2.40000E+03  4.02998E+03  4.77401E-01  7.38700E+01  3.11455E+04    7   14    4       1
      1  2.80000E+03  4.02998E+03  3.00697E-01  6.50348E+01  3.31570E+04    8   14    4       1
      1  3.20000E+03  4.02999E+03  1.75654E-01  5.87827E+01  3.44849E+04    9   14    4       1
      1  3.50000E+03  4.02999E+03  1.55759E-01  5.77879E+01  3.50451E+04   10   14    4       1
      1  3.70000E+03  4.02999E+03  2.02103E-01  6.01051E+01  3.52290E+04   11   14    4       1
      1  3.85000E+03  4.03000E+03  2.54947E-01  6.27473E+01  3.52896E+04   12   14    4       1
      1  3.95000E+03  4.03000E+03  2.87134E-01  6.43567E+01  3.53050E+04   13   14    4       1
      1  4.01000E+03  4.03000E+03  3.00736E-01  6.50368E+01  3.53081E+04   14   14    4       1
      2  7.66000E+02  4.03000E+03  9.99000E-01  3.02463E+02  0.00000E+00    2   14    1       1
      2  8.00000E+02  4.03000E+03  9.05926E-01  2.94780E+02  5.22751E+02    3   14    1       1
      2  1.20000E+03  4.02999E+03  1.93644E-01  2.35953E+02  5.39480E+03    4   14    1       1
      2  1.38102E+03  4.02998E+03  0.00000E+00  2.20000E+02  7.07880E+03    4   14    1       1
      2  1.38102E+03  4.02998E+03  1.00000E+00  2.00000E+02  9.33504E+03    4   14    2       1
      2  1.60000E+03  4.02998E+03  5.60071E-01  1.78004E+02  1.19584E+04    5   14    2       1
      2  1.98450E+03  4.02998E+03  1.00000E+00  1.50000E+02  1.56719E+04    5   14    3       1
      2  2.00000E+03  4.02998E+03  9.82250E-01  1.49112E+02  1.57996E+04    6   14    3       1
      2  2.40000E+03  4.02998E+03  5.82717E-01  1.29136E+02  1.86580E+04    7   14    3       1
      2  2.80000E+03  4.02998E+03  2.61217E-01  1.13061E+02  2.08279E+04    8   14    3       1
      2  3.10582E+03  4.02999E+03  1.00000E+00  1.00000E+02  2.20909E+04    8   14    4       1
      2  3.20000E+03  4.02999E+03  9.48349E-01  9.74174E+01  2.23506E+04    9   14    4       1
      2  3.50000E+03  4.02999E+03  7.44848E-01  8.72424E+01  2.29108E+04   10   14    4       1
      2  3.70000E+03  4.02999E+03  6.38281E-01  8.19140E+01  2.30948E+04   11   14    4       1
      2  3.85000E+03  4.03000E+03  5.88347E-01  7.94174E+01  2.31553E+04   12   14    4       1
      2  3.95000E+03  4.03000E+03  5.69798E-01  7.84899E+01  2.31708E+04   13   14    4       1
      2  4.01000E+03  4.03000E+03  5.63882E-01  7.81941E+01  2.31738E+04   14   14    4       1
      3  1.14900E+03  4.03000E+03  9.99000E-01  3.02303E+02  0.00000E+00    3   14    1       1
      3  1.20000E+03  4.03000E+03  9.05870E-01  2.94631E+02  5.21930E+02    4   14    1       1
      3  1.60000E+03  4.02999E+03  3.72076E-01  2.50564E+02  3.97062E+03    5   14    1       1
      3  2.00000E+03  4.02998E+03  3.81905E-02  2.23125E+02  6.63824E+03    6   14    1       1
      3  2.05609E+03  4.02998E+03  0.00000E+00  2.20000E+02  6.96757E+03    6   14    1       1
      3  2.05609E+03  4.02998E+03  1.00000E+00  2.00000E+02  9.11022E+03    6   14    2       1
      3  2.40000E+03  4.02998E+03  5.53709E-01  1.77685E+02  1.16137E+04    7   14    2       1
      3  2.80000E+03  4.02998E+03  1.32325E-01  1.56616E+02  1.39487E+04    8   14    2       1
      3  2.91200E+03  4.02998E+03  1.00000E+00  1.50000E+02  1.45143E+04    8   14    3       1
      3  3.20000E+03  4.02999E+03  7.47258E-01  1.37363E+02  1.56054E+04    9   14    3       1
      3  3.50000E+03  4.02999E+03  3.85572E-01  1.19279E+02  1.64696E+04   10   14    3       1
      3  3.67043E+03  4.02999E+03  1.00000E+00  1.00000E+02  1.68511E+04   10   14    4       1
      3  3.70000E+03  4.02999E+03  9.78714E-01  9.89357E+01  1.68710E+04   11   14    4       1
      3  3.85000E+03  4.03000E+03  8.48563E-01  9.24282E+01  1.69315E+04   12   14    4       1
      3  3.95000E+03  4.03000E+03  7.90415E-01  8.95208E+01  1.69470E+04   13   14    4       1
      3  4.01000E+03  4.03000E+03  7.69265E-01  8.84632E+01  1.69500E+04   14   14    4       1
      4  1.53200E+03  4.03000E+03  9.99000E-01  3.02063E+02  0.00000E+00    4   14    1       1
      4  1.60000E+03  4.03000E+03  9.05766E-01  2.94405E+02  5.20790E+02    5   14    1       1
      4  2.00000E+03  4.02999E+03  4.77830E-01  2.59098E+02  3.18841E+03    6   14    1       1
      4  2.40000E+03  4.02999E+03  1.79511E-01  2.34616E+02  5.36198E+03    7   14    1       1
      4  2.70514E+03  4.02999E+03  0.00000E+00  2.20000E+02  6.78508E+03    7   14    1       1
      4  2.70514E+03  4.02999E+03  1.00000E+00  2.00000E+02  8.83735E+03    7   14    2       1
      4  2.80000E+03  4.02999E+03  9.01777E-01  1.95089E+02  9.34411E+03    8   14    2       1
      4  3.20000E+03  4.02999E+03  4.97371E-01  1.74869E+02  1.12210E+04    9   14    2       1
      4  3.50000E+03  4.02999E+03  7.16754E-02  1.53584E+02  1.24399E+04   10   14    2       1
      4  3.52691E+03  4.02999E+03  1.00000E+00  1.50000E+02  1.25451E+04   10   14    3       1
      4  3.70000E+03  4.02999E+03  7.17769E-01  1.35888E+02  1.29204E+04   11   14    3       1
      4  3.85000E+03  4.03000E+03  2.00471E-01  1.10024E+02  1.32015E+04   12   14    3       1
      4  3.87117E+03  4.03000E+03  1.00000E+00  1.00000E+02  1.32396E+04   12   14    4       1
      4  3.95000E+03  4.03000E+03  9.42775E-01  9.71387E+01  1.32502E+04   13   14    4       1
      4  4.01000E+03  4.03000E+03  9.11103E-01  9.55552E+01  1.32533E+04   14   14    4       1
      5  1.91500E+03  4.03000E+03  9.99000E-01  3.01743E+02  0.00000E+00    5   14    1       1
      5  2.00000E+03  4.03000E+03  9.05579E-01  2.94099E+02  5.19495E+02    6   14    1       1
      5  2.40000E+03  4.02999E+03  5.47218E-01  2.64556E+02  2.69307E+03    7   14    1       1
      5  2.80000E+03  4.02999E+03  2.77627E-01  2.42471E+02  4.52696E+03    8   14    1       1
      5  3.20000E+03  4.02999E+03  5.80562E-02  2.24666E+02  6.11499E+03    9   14    1       1
      5  3.31378E+03  4.02999E+03  0.00000E+00  2.20000E+02  6.53007E+03    9   14    1       1
      5  3.31378E+03  4.02999E+03  1.00000E+00  2.00000E+02  8.34034E+03    9   14    2       1
      5  3.50000E+03  4.02999E+03  8.23931E-01  1.91197E+02  9.08462E+03   10   14    2       1
      5  3.70000E+03  4.02999E+03  5.18973E-01  1.75949E+02  9.88549E+03   11   14    2       1
      5  3.83838E+03  4.02999E+03  1.00000E+00  1.50000E+02  1.05078E+04   11   14    3       1
      5  3.85000E+03  4.02999E+03  9.77489E-01  1.48874E+02  1.05285E+04   12   14    3       1
      5  3.95000E+03  4.03000E+03  5.38922E-01  1.26946E+02  1.07160E+04   13   14    3       1
      5  3.97789E+03  4.03000E+03  1.00000E+00  1.00000E+02  1.07764E+04   13   14    4       1
      5  4.01000E+03  4.03000E+03  9.85624E-01  9.92812E+01  1.07777E+04   14   14    4       1
      6  2.29800E+03  4.03000E+03  9.99000E-01  3.01341E+02  0.00000E+00    6   14    1       1
      6  2.40000E+03  4.03000E+03  9.05255E-01  2.93708E+02  5.18292E+02    7   14    1       1
      6  2.80000E+03  4.02999E+03  5.95475E-01  2.68197E+02  2.35218E+03    8   14    1       1
      6  3.20000E+03  4.02999E+03  3.47936E-01  2.47965E+02  3.94021E+03    9   14    1       1
      6  3.50000E+03  4.02999E+03  1.86046E-01  2.34848E+02  5.00796E+03   10   14    1       1
      6  3.70000E+03  4.02999E+03  8.51101E-02  2.26755E+02  5.67226E+03   11   14    1       1
      6  3.85000E+03  4.02999E+03  1.24040E-02  2.20980E+02  6.14883E+03   12   14    1       1
      6  3.87616E+03  4.02999E+03  0.00000E+00  2.20000E+02  6.23011E+03   12   14    1       1
      6  3.87616E+03  4.02999E+03  1.00000E+00  2.00000E+02  7.89569E+03   12   14    2       1
      6  3.95000E+03  4.02999E+03  8.59143E-01  1.92957E+02  8.34064E+03   13   14    2       1
      6  4.01000E+03  4.02999E+03  5.59222E-01  1.77961E+02  8.81779E+03   14   14    2       1
      6  4.04972E+03  4.02999E+03  1.00000E+00  1.50000E+02  9.25542E+03   14   14    3       1
      6  4.04081E+03  4.03000E+03  1.00000E+00  1.00000E+02  9.36977E+03   14   14    4       1
      7  2.68100E+03  4.03000E+03  9.99000E-01  3.00858E+02  0.00000E+00    7   14    1       1
      7  2.80000E+03  4.03000E+03  9.04707E-01  2.93226E+02  5.17572E+02    8   14    1       1
      7  3.20000E+03  4.03000E+03  6.29959E-01  2.70632E+02  2.10560E+03    9   14    1       1
      7  3.50000E+03  4.02999E+03  4.53545E-01  2.56197E+02  3.17335E+03   10   14    1       1
      7  3.70000E+03  4.02999E+03  3.45103E-01  2.47390E+02  3.83765E+03   11   14    1       1
      7  3.85000E+03  4.02999E+03  2.67596E-01  2.41152E+02  4.31422E+03   12   14    1       1
      7  3.95000E+03  4.02999E+03  2.17794E-01  2.37163E+02  4.62242E+03   13   14    1       1
      7  4.01000E+03  4.02999E+03  1.88741E-01  2.34844E+02  4.80384E+03   14   14    1       1
      7  4.05000E+03  4.02999E+03  1.69762E-01  2.33334E+02  4.92336E+03   15   14    1       1
      7  4.11000E+03  4.02999E+03  1.41935E-01  2.31134E+02  5.10050E+03   16   14    1       1
      7  4.21000E+03  4.02999E+03  9.74777E-02  2.27631E+02  5.39008E+03   17   14    1       1
      7  4.36000E+03  4.02999E+03  3.60105E-02  2.22810E+02  5.81109E+03   18   14    1       1
      7  4.45938E+03  4.02999E+03  0.00000E+00  2.20000E+02  6.08070E+03   18   14    1       1
      7  4.45938E+03  4.02999E+03  1.00000E+00  2.00000E+02  8.02528E+03   18   14    2       1
      7  4.36000E+03  4.02999E+03  5.31902E-01  1.76595E+02  9.57077E+03   17   14    2       1
      7  4.32392E+03  4.02999E+03  1.00000E+00  1.50000E+02  1.02242E+04   17   14    3       1
      7  4.21000E+03  4.03000E+03  5.79492E-01  1.28975E+02  1.05373E+04   16   14    3       1
      7  4.16051E+03  4.03000E+03  1.00000E+00  1.00000E+02  1.06707E+04   16   14    4       1
      7  4.11000E+03  4.03000E+03  9.66749E-01  9.83375E+01  1.06767E+04   15   14    4       1
      7  4.05000E+03  4.03000E+03  9.33105E-01  9.66553E+01  1.06798E+04   14   14    4       1
      8  3.06400E+03  4.03000E+03  9.99000E-01  3.00293E+02  0.00000E+00    8   14    1       1
      8  3.20000E+03  4.03000E+03  9.03805E-01  2.92642E+02  5.17931E+02    9   14    1       1
      8  3.50000E+03  4.03000E+03  7.13289E-01  2.76927E+02  1.58568E+03   10   14    1       1
      8  3.70000E+03  4.03000E+03  5.97558E-01  2.67428E+02  2.24998E+03   11   14    1       1
      8  3.85000E+03  4.02999E+03  5.15390E-01  2.60739E+02  2.72655E+03   12   14    1       1
      8  3.95000E+03  4.02999E+03  4.62705E-01  2.56463E+02  3.03475E+03   13   14    1       1
      8  4.01000E+03  4.02999E+03  4.31952E-01  2.53972E+02  3.21618E+03   14   14    1       1
      8  4.05000E+03  4.02999E+03  4.11837E-01  2.52349E+02  3.33569E+03   15   14    1       1
      8  4.11000E+03  4.02999E+03  3.82282E-01  2.49989E+02  3.51283E+03   16   14    1       1
      8  4.21000E+03  4.02999E+03  3.34832E-01  2.46211E+02  3.80241E+03   17   14    1       1
      8  4.36000E+03  4.02999E+03  2.68464E-01  2.40946E+02  4.22342E+03   18   14    1       1
      8  4.56000E+03  4.02999E+03  1.89988E-01  2.34750E+02  4.75952E+03   19   14    1       1
      8  4.86000E+03  4.02999E+03  9.46697E-02  2.27296E+02  5.50864E+03   20   14    1       1
      8  5.26000E+03  4.02999E+03  6.65492E-03  2.20507E+02  6.40587E+03   21   14    1       1
      8  5.30763E+03  4.02999E+03  0.00000E+00  2.20000E+02  6.50466E+03   21   14    1       1
      8  5.30763E+03  4.02999E+03  1.00000E+00  2.00000E+02  1.04872E+04   21   14    2       1
      8  5.26000E+03  4.02999E+03  7.26761E-01  1.86338E+02  1.32116E+04   20   14    2       1
      8  5.15660E+03  4.03000E+03  1.00000E+00  1.50000E+02  1.75184E+04   20   14    3       1
      8  4.86000E+03  4.03000E+03  4.18669E-01  1.20933E+02  2.07487E+04   19   14    3       1
      8  4.70691E+03  4.03000E+03  1.00000E+00  1.00000E+02  2.17767E+04   19   14    4       1
      8  4.56000E+03  4.03000E+03  8.78341E-01  9.39171E+01  2.20904E+04   18   14    4       1
      8  4.36000E+03  4.03000E+03  7.15968E-01  8.57984E+01  2.23111E+04   17   14    4       1
      8  4.21000E+03  4.03000E+03  6.43387E-01  8.21694E+01  2.23765E+04   16   14    4       1
      8  4.11000E+03  4.03000E+03  6.15771E-01  8.07885E+01  2.23924E+04   15   14    4       1
      8  4.05000E+03  4.03000E+03  6.06596E-01  8.03298E+01  2.23956E+04   14   14    4       1
      9  3.44700E+03  4.03000E+03  9.99000E-01  2.99729E+02  0.00000E+00    9   14    1       1
      9  3.50000E+03  4.03000E+03  9.64857E-01  2.97004E+02  1.82531E+02   10   14    1       1
      9  3.70000E+03  4.03000E+03  8.42067E-01  2.86834E+02  8.46828E+02   11   14    1       1
      9  3.85000E+03  4.03000E+03  7.55384E-01  2.79709E+02  1.32340E+03   12   14    1       1
      9  3.95000E+03  4.03000E+03  6.99907E-01  2.75156E+02  1.63160E+03   13   14    1       1
      9  4.01000E+03  4.03000E+03  6.67508E-01  2.72497E+02  1.81303E+03   14   14    1       1
      9  4.05000E+03  4.02999E+03  6.46292E-01  2.70764E+02  1.93254E+03   15   14    1       1
      9  4.11000E+03  4.02999E+03  6.15065E-01  2.68249E+02  2.10968E+03   16   14    1       1
      9  4.21000E+03  4.02999E+03  5.64717E-01  2.64207E+02  2.39926E+03   17   14    1       1
      9  4.36000E+03  4.02999E+03  4.93601E-01  2.58511E+02  2.82027E+03   18   14    1       1
      9  4.56000E+03  4.02999E+03  4.07913E-01  2.51670E+02  3.35637E+03   19   14    1       1
      9  4.86000E+03  4.02999E+03  3.00142E-01  2.43130E+02  4.10549E+03   20   14    1       1
      9  5.26000E+03  4.02999E+03  1.93822E-01  2.34766E+02  5.00272E+03   21   14    1       1
      9  5.66000E+03  4.02999E+03  1.24523E-01  2.29345E+02  5.79015E+03   22   14    1       1
      9  6.06000E+03  4.02999E+03  8.53809E-02  2.26296E+02  6.47651E+03   23   14    1       1
      9  6.46000E+03  4.02999E+03  7.03540E-02  2.25082E+02  7.07128E+03   24   14    1       1
      9  6.86000E+03  4.02999E+03  7.45922E-02  2.25259E+02  7.58350E+03   25   14    1       1
      9  7.26000E+03  4.02999E+03  9.43005E-02  2.26457E+02  8.02142E+03   26   14    1       1
      9  7.66000E+03  4.02999E+03  1.26509E-01  2.28362E+02  8.39232E+03   27   14    1       1
      9  7.98737E+03  4.02999E+03  1.00000E+00  2.83272E+02  8.95968E+03   27   14    1       1
     10  3.83000E+03  4.03000E+03  9.99000E-01  2.98966E+02  0.00000E+00   11   14    1       1
     10  3.85000E+03  4.03000E+03  9.87132E-01  2.98028E+02  6.26336E+01   12   14    1       1
     10  3.95000E+03  4.03000E+03  9.28958E-01  2.93206E+02  3.70839E+02   13   14    1       1
     10  4.01000E+03  4.03000E+03  8.94970E-01  2.90387E+02  5.52262E+02   14   14    1       1
     10  4.05000E+03  4.03000E+03  8.72691E-01  2.88547E+02  6.71777E+02   15   14    1       1
     10  4.11000E+03  4.03000E+03  8.39848E-01  2.85883E+02  8.48919E+02   16   14    1       1
     10  4.21000E+03  4.02999E+03  7.86702E-01  2.81585E+02  1.13849E+03   17   14    1       1
     10  4.36000E+03  4.02999E+03  7.11002E-01  2.75472E+02  1.55951E+03   18   14    1       1
     10  4.56000E+03  4.03000E+03  6.18350E-01  2.68008E+02  2.09561E+03   19   14    1       1
     10  4.86000E+03  4.03000E+03  4.98553E-01  2.58420E+02  2.84473E+03   20   14    1       1
     10  5.26000E+03  4.02999E+03  3.74557E-01  2.48535E+02  3.74196E+03   21   14    1       1
     10  5.66000E+03  4.02999E+03  2.87293E-01  2.41559E+02  4.52939E+03   22   14    1       1
     10  6.06000E+03  4.02999E+03  2.30873E-01  2.37024E+02  5.21575E+03   23   14    1       1
     10  6.46000E+03  4.02999E+03  1.99702E-01  2.34426E+02  5.81051E+03   24   14    1       1
     10  6.86000E+03  4.02999E+03  1.89076E-01  2.33330E+02  6.32274E+03   25   14    1       1
     10  7.26000E+03  4.02999E+03  1.95198E-01  2.33366E+02  6.76065E+03   26   14    1       1
     10  7.66000E+03  4.02999E+03  2.15029E-01  2.34213E+02  7.13156E+03   27   14    1       1
     10  7.95417E+03  4.02999E+03  1.00000E+00  2.83272E+02  7.57373E+03   27   14    1       1
     11  4.21300E+03  4.03000E+03  9.99000E-01  2.97942E+02  0.00000E+00   17   14    1       1
     11  4.36000E+03  4.03000E+03  9.20528E-01  2.91820E+02  4.12450E+02   18   14    1       1
     11  4.56000E+03  4.03000E+03  8.21165E-01  2.83754E+02  9.48552E+02   19   14    1       1
     11  4.86000E+03  4.03000E+03  6.89778E-01  2.73156E+02  1.69767E+03   20   14    1       1
     11  5.26000E+03  4.03000E+03  5.48746E-01  2.61805E+02  2.59490E+03   21   14    1       1
     11  5.66000E+03  4.03000E+03  4.44166E-01  2.53331E+02  3.38233E+03   22   14    1       1
     11  6.06000E+03  4.03000E+03  3.71095E-01  2.47364E+02  4.06869E+03   23   14    1       1
     11  6.46000E+03  4.03000E+03  3.24364E-01  2.43431E+02  4.66346E+03   24   14    1       1
     11  6.86000E+03  4.03000E+03  2.99412E-01  2.41109E+02  5.17569E+03   25   14    1       1
     11  7.26000E+03  4.03000E+03  2.92440E-01  2.40025E+02  5.61360E+03   26   14    1       1
     11  7.66000E+03  4.03000E+03  3.00342E-01  2.39852E+02  5.98450E+03   27   14    1       1
     11  7.92218E+03  4.03000E+03  1.00000E+00  2.83272E+02  6.33885E+03   27   14    1       1
     12  4.59600E+03  4.03000E+03  9.99000E-01  2.96986E+02  0.00000E+00   19   14    1       1
     12  4.86000E+03  4.03000E+03  8.74584E-01  2.87398E+02  6.56064E+02   20   14    1       1
     12  5.26000E+03  4.03000E+03  7.17088E-01  2.74630E+02  1.55329E+03   21   14    1       1
     12  5.66000E+03  4.03000E+03  5.95774E-01  2.64708E+02  2.34072E+03   22   14    1       1
     12  6.06000E+03  4.03000E+03  5.06610E-01  2.57357E+02  3.02708E+03   23   14    1       1
     12  6.46000E+03  4.03000E+03  4.44842E-01  2.52134E+02  3.62185E+03   24   14    1       1
     12  6.86000E+03  4.03000E+03  4.06046E-01  2.48626E+02  4.13408E+03   25   14    1       1
     12  7.26000E+03  4.03000E+03  3.86419E-01  2.46460E+02  4.57199E+03   26   14    1       1
     12  7.66000E+03  4.03000E+03  3.82792E-01  2.45302E+02  4.94289E+03   27   14    1       1
     12  7.89128E+03  4.03000E+03  1.00000E+00  2.83272E+02  5.22995E+03   27   14    1       1
     13  4.97900E+03  4.03000E+03  9.99000E-01  2.96106E+02  0.00000E+00   20   14    1       1
     13  5.26000E+03  4.03000E+03  8.80916E-01  2.87110E+02  6.19585E+02   21   14    1       1
     13  5.66000E+03  4.03000E+03  7.43317E-01  2.75780E+02  1.40701E+03   22   14    1       1
     13  6.06000E+03  4.03000E+03  6.38491E-01  2.67081E+02  2.09338E+03   23   14    1       1
     13  6.46000E+03  4.03000E+03  5.62090E-01  2.60604E+02  2.68814E+03   24   14    1       1
     13  6.86000E+03  4.03000E+03  5.09819E-01  2.55943E+02  3.20037E+03   25   14    1       1
     13  7.26000E+03  4.03000E+03  4.77877E-01  2.52723E+02  3.63828E+03   26   14    1       1
     13  7.66000E+03  4.03000E+03  4.63031E-01  2.50605E+02  4.00918E+03   27   14    1       1
     13  7.86120E+03  4.03000E+03  1.00000E+00  2.83272E+02  4.24169E+03   27   14    1       1
     14  5.36200E+03  4.03000E+03  9.99000E-01  2.94968E+02  0.00000E+00   21   14    1       1
     14  5.66000E+03  4.03000E+03  8.87937E-01  2.86633E+02  5.77627E+02   22   14    1       1
     14  6.06000E+03  4.03000E+03  7.67760E-01  2.76613E+02  1.26399E+03   23   14    1       1
     14  6.46000E+03  4.03000E+03  6.77015E-01  2.68906E+02  1.85875E+03   24   14    1       1
     14  6.86000E+03  4.03000E+03  6.11537E-01  2.63114E+02  2.37098E+03   25   14    1       1
     14  7.26000E+03  4.03000E+03  5.67523E-01  2.58862E+02  2.80889E+03   26   14    1       1
     14  7.66000E+03  4.03000E+03  5.41680E-01  2.55804E+02  3.17980E+03   27   14    1       1
     14  7.83172E+03  4.03000E+03  1.00000E+00  2.83272E+02  3.36633E+03   27   14    1       1
     15  5.74500E+03  4.03000E+03  9.99000E-01  2.93665E+02  0.00000E+00   22   14    1       1
     15  6.06000E+03  4.03000E+03  8.95180E-01  2.86009E+02  5.33373E+02   23   14    1       1
     15  6.46000E+03  4.03000E+03  7.90296E-01  2.77089E+02  1.12814E+03   24   14    1       1
     15  6.86000E+03  4.03000E+03  7.11801E-01  2.70182E+02  1.64037E+03   25   14    1       1
     15  7.26000E+03  4.03000E+03  6.55888E-01  2.64913E+02  2.07828E+03   26   14    1       1
     15  7.66000E+03  4.03000E+03  6.19205E-01  2.60928E+02  2.44918E+03   27   14    1       1
     15  7.80267E+03  4.03000E+03  1.00000E+00  2.83272E+02  2.59587E+03   27   14    1       1
     16  6.12800E+03  4.03000E+03  9.99000E-01  2.92166E+02  0.00000E+00   23   14    1       1
     16  6.46000E+03  4.03000E+03  9.02436E-01  2.85190E+02  4.88316E+02   24   14    1       1
     16  6.86000E+03  4.03000E+03  8.11054E-01  2.77180E+02  1.00054E+03   25   14    1       1
     16  7.26000E+03  4.03000E+03  7.43362E-01  2.70903E+02  1.43845E+03   26   14    1       1
     16  7.66000E+03  4.03000E+03  6.95948E-01  2.66000E+02  1.80936E+03   27   14    1       1
     16  7.77391E+03  4.03000E+03  1.00000E+00  2.83272E+02  1.92082E+03   27   14    1       1
     17  6.51100E+03  4.03000E+03  9.99000E-01  2.90430E+02  0.00000E+00   24   14    1       1
     17  6.86000E+03  4.03000E+03  9.09611E-01  2.84128E+02  4.43208E+02   25   14    1       1
     17  7.26000E+03  4.03000E+03  8.30223E-01  2.76850E+02  8.81120E+02   26   14    1       1
     17  7.66000E+03  4.03000E+03  7.72153E-01  2.71037E+02  1.25203E+03   27   14    1       1
     17  7.74536E+03  4.03000E+03  1.00000E+00  2.83272E+02  1.33185E+03   27   14    1       1
     18  6.89400E+03  4.03000E+03  9.99000E-01  2.88408E+02  0.00000E+00   25   14    1       1
     18  7.26000E+03  4.03000E+03  9.16663E-01  2.82770E+02  3.98414E+02   26   14    1       1
     18  7.66000E+03  4.03000E+03  8.47989E-01  2.76050E+02  7.69318E+02   27   14    1       1
     18  7.71695E+03  4.03000E+03  1.00000E+00  2.83272E+02  8.20392E+02   27   14    1       1
     19  7.27700E+03  4.03000E+03  9.99000E-01  2.86031E+02  0.00000E+00   26   14    1       1
     19  7.66000E+03  4.03000E+03  9.23576E-01  2.81046E+02  3.54101E+02   27   14    1       1
     19  7.68863E+03  4.03000E+03  1.00000E+00  2.83272E+02  3.78798E+02   27   14    1       1
     20  7.65960E+03  4.03000E+03  9.99000E-01  2.86031E+02  0.00000E+00   26   14    1       1
     20  7.66000E+03  4.03000E+03  9.98921E-01  2.86026E+02  3.47285E-01   27   14    1       1
     20  7.66040E+03  4.03000E+03  1.00000E+00  2.83272E+02  6.83357E-01   27   14    1       1
