@[MODPATH-PLOT Version 3.00 (V3, Release 2, 6-2000)]
@
@----------------------------------------------------------------------------
@  File: path-s3.rsp
@
@  Response file for steady state flow sample problem: run 3
@----------------------------------------------------------------------------
@
* ENTER THE NAME FILE:
@RESPONSE: HELP LABEL = 4.2.1
../data/demo-s3.mpn
* DO YOU WANT TO STOP COMPUTING PATHS AFTER A SPECIFIED LENGTH OF TIME ?
@RESPONSE: HELP LABEL = 2.1.41
n
* SELECT THE OUTPUT MODE:
*     1 = ENDPOINTS
*     2 = PATHLINE
*     3 = TIME SERIES
@RESPONSE: HELP LABEL = 2.1.6
2
* DO YOU WANT TO COMPUTE LOCATIONS AT SPECIFIC POINTS IN TIME ?
@RESPONSE: HELP LABEL = 2.1.43
n
* HOW ARE STARTING LOCATIONS TO BE ENTERED?
*     1 = FROM AN EXISTING DATA FILE
*     2 = ARRAYS OF PARTICLES WILL BE GENERATED INTERNALLY
@RESPONSE: HELP LABEL = 2.1.9
1
* ENTER NAME OF DATA FILE CONTAINING STARTING LOCATIONS:
@RESPONSE: HELP LABEL = 2.1.39
../data/demo-s3.loc
* IN WHICH DIRECTION SHOULD PARTICLES BE TRACKED?
*     1 = FORWARD IN THE DIRECTION OF FLOW
*     2 = BACKWARDS TOWARD RECHARGE LOCATIONS
@RESPONSE: HELP LABEL = 2.1.10
1
* HOW SHOULD PARTICLES BE TREATED WHEN THEY ENTER CELLS WITH INTERNAL SINKS ?
*     1 = PASS THROUGH WEAK SINK CELLS
*     2 = STOP AT WEAK SINK CELLS
*     3 = STOP AT WEAK SINK CELLS THAT EXCEED A SPECIFIED STRENGTH
@RESPONSE: HELP LABEL = 2.1.11
1
* DO YOU WANT TO STOP PARTICLES WHENEVER THEY ENTER ONE SPECIFIC ZONE ?
@RESPONSE: HELP LABEL = 2.1.45
n
* DO YOU WANT TO COMPUTE VOLUMETRIC BUDGETS FOR ALL CELLS ?
@RESPONSE: HELP LABEL = 3.1.4
y
* SPECIFY AN ERROR TOLERANCE (IN PERCENT):
@RESPONSE: HELP LABEL = 3.1.1
0.1
*  DO YOU WANT TO CHECK DATA CELL BY CELL ?
@RESPONSE: HELP LABEL = 3.1.2
n
* SUMMARIZE FINAL STATUS OF PARTICLES IN SUMMARY.PTH FILE ?
@RESPONSE: HELP LABEL = 3.1.3
y
