@ [ MODPATH Version 4.00 (V4, Release 2, 4-2001) (TREF=   0.182865E+06 ) ]
      1  4.03000E+03  4.01000E+03  5.00000E-01  2.46469E+02  0.00000E+00   14   14    1       5
      1  4.03000E+03  4.01000E+03  5.00000E-01  2.46469E+02  1.24132E-04   14   15    1       5
      1  4.02751E+03  3.95000E+03  5.00130E-01  2.50800E+02  3.64297E+00   14   16    1       5
      1  4.01444E+03  3.85000E+03  5.01634E-01  2.52994E+02  2.11325E+01   14   17    1       5
      1  4.01000E+03  3.82193E+03  5.02587E-01  2.54388E+02  2.95821E+01   13   17    1       5
      1  3.98764E+03  3.73471E+03  5.06568E-01  2.54744E+02  6.44219E+01   13   17    1       5
      2  4.03000E+03  4.05000E+03  5.00000E-01  2.46469E+02  0.00000E+00   14   14    1       5
      2  4.03000E+03  4.05000E+03  5.00000E-01  2.46469E+02  1.24057E-04   14   13    1       5
      2  4.02751E+03  4.11000E+03  5.00130E-01  2.50800E+02  3.64298E+00   14   12    1       5
      2  4.01444E+03  4.21000E+03  5.01634E-01  2.52994E+02  2.11325E+01   14   11    1       5
      2  4.01000E+03  4.23807E+03  5.02587E-01  2.54388E+02  2.95840E+01   13   11    1       5
      2  3.98764E+03  4.32529E+03  5.06569E-01  2.54744E+02  6.44219E+01   13   11    1       5
      1  3.98764E+03  3.73471E+03  5.06568E-01  2.55597E+02  6.44219E+01   13   17    1       4
      1  3.97284E+03  3.70000E+03  5.08683E-01  2.55746E+02  8.25496E+01   13   18    1       4
      1  3.95000E+03  3.63455E+03  5.14007E-01  2.57058E+02  1.23231E+02   12   18    1       4
      1  3.87330E+03  3.50277E+03  5.29118E-01  2.58299E+02  2.36187E+02   12   18    1       4
      2  3.98764E+03  4.32529E+03  5.06569E-01  2.55597E+02  6.44219E+01   13   11    1       4
      2  3.97284E+03  4.36000E+03  5.08684E-01  2.55746E+02  8.25496E+01   13   10    1       4
      2  3.95000E+03  4.42546E+03  5.14007E-01  2.57058E+02  1.23236E+02   12   10    1       4
      2  3.87330E+03  4.55723E+03  5.29118E-01  2.58299E+02  2.36187E+02   12   10    1       4
      1  3.87330E+03  3.50277E+03  5.29118E-01  2.59098E+02  2.36187E+02   12   18    1       3
      1  3.87110E+03  3.50000E+03  5.29519E-01  2.59127E+02  2.39084E+02   12   19    1       3
      1  3.85000E+03  3.46213E+03  5.35545E-01  2.60328E+02  2.80664E+02   11   19    1       3
      1  3.82843E+03  3.43125E+03  5.41620E-01  2.60995E+02  3.22069E+02   11   19    1       3
      2  3.87330E+03  4.55723E+03  5.29118E-01  2.59098E+02  2.36187E+02   12   10    1       3
      2  3.87111E+03  4.56000E+03  5.29519E-01  2.59127E+02  2.39083E+02   12    9    1       3
      2  3.85000E+03  4.59788E+03  5.35546E-01  2.60329E+02  2.80671E+02   11    9    1       3
      2  3.82844E+03  4.62875E+03  5.41619E-01  2.60995E+02  3.22069E+02   11    9    1       3
      1  3.82843E+03  3.43125E+03  5.41620E-01  2.61861E+02  3.22069E+02   11   19    1       2
      1  3.80783E+03  3.40691E+03  5.48226E-01  2.62371E+02  3.65010E+02   11   19    1       2
      2  3.82844E+03  4.62875E+03  5.41619E-01  2.61861E+02  3.22069E+02   11    9    1       2
      2  3.80783E+03  4.65310E+03  5.48225E-01  2.62371E+02  3.65010E+02   11    9    1       2
      1  3.80783E+03  3.40691E+03  5.48226E-01  2.63353E+02  3.65010E+02   11   19    1       1
      1  3.70000E+03  3.40145E+03  6.05348E-01  2.67870E+02  7.11034E+02   10   19    1       1
      1  3.50000E+03  3.39129E+03  7.18582E-01  2.77056E+02  1.38010E+03    9   19    1       1
      1  3.20000E+03  3.37619E+03  9.08856E-01  2.92560E+02  2.45727E+03    8   19    1       1
      1  3.07076E+03  3.37022E+03  1.00000E+00  3.00396E+02  2.95359E+03    8   19    1       1
      2  3.80783E+03  4.65310E+03  5.48225E-01  2.63353E+02  3.65010E+02   11    9    1       1
      2  3.70000E+03  4.65856E+03  6.05346E-01  2.67870E+02  7.11021E+02   10    9    1       1
      2  3.50000E+03  4.66874E+03  7.18574E-01  2.77055E+02  1.38006E+03    9    9    1       1
      2  3.20000E+03  4.68388E+03  9.08844E-01  2.92559E+02  2.45720E+03    8    9    1       1
      2  3.07074E+03  4.68986E+03  1.00000E+00  3.00396E+02  2.95359E+03    8    9    1       1
