MODPATH Version 3.00 (V3, Release 2, 6-2000)                                    

 FILE UNIT NUMBER  10 HAS BEEN CONNECTED TO <../data/demo-s.mp>
 FILE UNIT NUMBER  11 HAS BEEN CONNECTED TO <../data/demo-s.wel>
 FILE UNIT NUMBER  12 HAS BEEN CONNECTED TO <../data/demo-s.riv>
 FILE UNIT NUMBER  13 HAS BEEN CONNECTED TO <../data/demo-s.rch>
 FILE UNIT NUMBER  50 HAS BEEN CONNECTED TO <../data/demo-s.bud>
 FILE UNIT NUMBER  60 HAS BEEN CONNECTED TO <../data/demo-s.hed>
 FILE UNIT NUMBER  75 WILL BE CONNECTED TO <endpoint.s1>

 MAXIMUM NUMBER OF PARTICLES IS   500000
 4543548 ELEMENTS OUT OF 15000000 USED IN THE "A" ARRAY
  
   27 COLUMNS   27 ROWS    5 LAYERS    1 CONFINING LAYERS
 IGRID (GRID TYPE CODE) IS 1
  
 LAYCON (LAYER TYPE CODES):
  1  0  0  0  0
  
 NCON (CONFINING LAYER CODES):
  1  0  0  0  0



           DELR                    
 READING ON UNIT  10 WITH FORMAT: (FREE)              
   400.00       400.00       400.00       400.00       400.00       400.00       400.00       400.00       300.00       200.00    
   150.00       100.00       60.000       40.000       60.000       100.00       150.00       200.00       300.00       400.00    
   400.00       400.00       400.00       400.00       400.00       400.00       400.00    



           DELC                    
 READING ON UNIT  10 WITH FORMAT: (FREE)              
   400.00       400.00       400.00       400.00       400.00       400.00       400.00       400.00       300.00       200.00    
   150.00       100.00       60.000       40.000       60.000       100.00       150.00       200.00       300.00       400.00    
   400.00       400.00       400.00       400.00       400.00       400.00       400.00    



           DELZ (Z SPACING)        
 READING ON UNIT  10 WITH FORMAT: (FREE)              
   100.00       50.000       50.000       50.000       50.000    



           DELZCB (CB THICKNESS)   
 READING ON UNIT  10 WITH FORMAT: (FREE)              
   20.000       0.0000       0.0000       0.0000       0.0000    
  
 BOTTOM ELEVATION OF LAYER 1 IS  0.22000E+03

 OPENING FILE ON UNIT  91:
 ibound.1                                                                        



           IBOUND                   FOR LAYER   1
 READING ON UNIT  91 WITH FORMAT: (FREE)              

                1           2           3           4           5           6           7           8           9          10
               11          12          13          14          15          16          17          18          19          20
               21          22          23          24          25          26          27
 ............................................................................................................................
0  1            1           1           1           1           1           1           1           1           1           1
                1           1           1           1           1           1           1           1           1           1
                1           1           1           1           1           1           1
0  2            1           1           1           1           1           1           1           1           1           1
                1           1           1           1           1           1           1           1           1           1
                1           1           1           1           1           1           1
0  3            1           1           1           1           1           1           1           1           1           1
                1           1           1           1           1           1           1           1           1           1
                1           1           1           1           1           1           1
0  4            1           1           1           1           1           1           1           1           1           1
                1           1           1           1           1           1           1           1           1           1
                1           1           1           1           1           1           1
0  5            1           1           1           1           1           1           1           1           1           1
                1           1           1           1           1           1           1           1           1           1
                1           1           1           1           1           1           1
0  6            1           1           1           1           1           1           1           1           1           1
                1           1           1           1           1           1           1           1           1           1
                1           1           1           1           1           1           1
0  7            1           1           1           1           1           1           1           1           1           1
                1           1           1           1           1           1           1           1           1           1
                1           1           1           1           1           1           1
0  8            1           1           1           1           1           1           1           1           1           1
                1           1           1           1           1           1           1           1           1           1
                1           1           1           1           1           1           1
0  9            1           1           1           1           1           1           1           1           1           1
                1           1           1           1           1           1           1           1           1           1
                1           1           1           1           1           1           1
0 10            1           1           1           1           1           1           1           1           1           1
                1           1           1           1           1           1           1           1           1           1
                1           1           1           1           1           1           1
0 11            1           1           1           1           1           1           1           1           1           1
                1           1           1           1           1           1           1           1           1           1
                1           1           1           1           1           1           1
0 12            1           1           1           1           1           1           1           1           1           1
                1           1           1           1           1           1           1           1           1           1
                1           1           1           1           1           1           1
0 13            1           1           1           1           1           1           1           1           1           1
                1           1           1           1           1           1           1           1           1           1
                1           1           1           1           1           1           1
0 14            1           1           1           1           1           1           1           1           1           1
                1           1           1           3           1           1           1           1           1           1
                1           1           1           1           1           1           1
0 15            1           1           1           1           1           1           1           1           1           1
                1           1           1           1           1           1           1           1           1           1
                1           1           1           1           1           1           1
0 16            1           1           1           1           1           1           1           1           1           1
                1           1           1           1           1           1           1           1           1           1
                1           1           1           1           1           1           1
0 17            1           1           1           1           1           1           1           1           1           1
                1           1           1           1           1           1           1           1           1           1
                1           1           1           1           1           1           1
0 18            1           1           1           1           1           1           1           1           1           1
                1           1           1           1           1           1           1           1           1           1
                1           1           1           1           1           1           1
0 19            1           1           1           1           1           1           1           1           1           1
                1           1           1           1           1           1           1           1           1           1
                1           1           1           1           1           1           1
0 20            1           1           1           1           1           1           1           1           1           1
                1           1           1           1           1           1           1           1           1           1
                1           1           1           1           1           1           1
0 21            1           1           1           1           1           1           1           1           1           1
                1           1           1           1           1           1           1           1           1           1
                1           1           1           1           1           1           1
0 22            1           1           1           1           1           1           1           1           1           1
                1           1           1           1           1           1           1           1           1           1
                1           1           1           1           1           1           1
0 23            1           1           1           1           1           1           1           1           1           1
                1           1           1           1           1           1           1           1           1           1
                1           1           1           1           1           1           1
0 24            1           1           1           1           1           1           1           1           1           1
                1           1           1           1           1           1           1           1           1           1
                1           1           1           1           1           1           1
0 25            1           1           1           1           1           1           1           1           1           1
                1           1           1           1           1           1           1           1           1           1
                1           1           1           1           1           1           1
0 26            1           1           1           1           1           1           1           1           1           1
                1           1           1           1           1           1           1           1           1           1
                1           1           1           1           1           1           1
0 27            1           1           1           1           1           1           1           1           1           1
                1           1           1           1           1           1           1           1           1           1
                1           1           1           1           1           1           1

 IBOUND                   =              1 FOR LAYER   2

 IBOUND                   =              1 FOR LAYER   3

 OPENING FILE ON UNIT  91:
 ibound.4                                                                        



           IBOUND                   FOR LAYER   4
 READING ON UNIT  91 WITH FORMAT: (FREE)              

                1           2           3           4           5           6           7           8           9          10
               11          12          13          14          15          16          17          18          19          20
               21          22          23          24          25          26          27
 ............................................................................................................................
0  1            1           1           1           1           1           1           1           1           1           1
                1           1           1           1           1           1           1           1           1           1
                1           1           1           1           1           1           1
0  2            1           1           1           1           1           1           1           1           1           1
                1           1           1           1           1           1           1           1           1           1
                1           1           1           1           1           1           1
0  3            1           1           1           1           1           1           1           1           1           1
                1           1           1           1           1           1           1           1           1           1
                1           1           1           1           1           1           1
0  4            1           1           1           1           1           1           1           1           1           1
                1           1           1           1           1           1           1           1           1           1
                1           1           1           1           1           1           1
0  5            1           1           1           1           1           1           1           1           1           1
                1           1           1           1           1           1           1           1           1           1
                1           1           1           1           1           1           1
0  6            1           1           1           1           1           1           1           1           1           1
                1           1           1           1           1           1           1           1           1           1
                1           1           1           1           1           1           1
0  7            1           1           1           1           1           1           1           1           1           1
                1           1           1           1           1           1           1           1           1           1
                1           1           1           1           1           1           1
0  8            1           1           1           1           1           1           1           1           1           1
                1           1           1           1           1           1           1           1           1           1
                1           1           1           1           1           1           1
0  9            1           1           1           1           1           1           1           1           1           1
                1           1           1           1           1           1           1           1           1           1
                1           1           1           1           1           1           1
0 10            1           1           1           1           1           1           1           1           1           1
                1           1           1           1           1           1           1           1           1           1
                1           1           1           1           1           1           1
0 11            1           1           1           1           1           1           1           1           1           1
                1           1           1           1           1           1           1           1           1           1
                1           1           1           1           1           1           1
0 12            1           1           1           1           1           1           1           1           1           1
                1           1           1           1           1           1           1           1           1           1
                1           1           1           1           1           1           1
0 13            1           1           1           1           1           1           1           1           1           1
                1           1           1           1           1           1           1           1           1           1
                1           1           1           1           1           1           1
0 14            1           1           1           1           1           1           1           1           1           1
                1           1           1           2           1           1           1           1           1           1
                1           1           1           1           1           1           1
0 15            1           1           1           1           1           1           1           1           1           1
                1           1           1           1           1           1           1           1           1           1
                1           1           1           1           1           1           1
0 16            1           1           1           1           1           1           1           1           1           1
                1           1           1           1           1           1           1           1           1           1
                1           1           1           1           1           1           1
0 17            1           1           1           1           1           1           1           1           1           1
                1           1           1           1           1           1           1           1           1           1
                1           1           1           1           1           1           1
0 18            1           1           1           1           1           1           1           1           1           1
                1           1           1           1           1           1           1           1           1           1
                1           1           1           1           1           1           1
0 19            1           1           1           1           1           1           1           1           1           1
                1           1           1           1           1           1           1           1           1           1
                1           1           1           1           1           1           1
0 20            1           1           1           1           1           1           1           1           1           1
                1           1           1           1           1           1           1           1           1           1
                1           1           1           1           1           1           1
0 21            1           1           1           1           1           1           1           1           1           1
                1           1           1           1           1           1           1           1           1           1
                1           1           1           1           1           1           1
0 22            1           1           1           1           1           1           1           1           1           1
                1           1           1           1           1           1           1           1           1           1
                1           1           1           1           1           1           1
0 23            1           1           1           1           1           1           1           1           1           1
                1           1           1           1           1           1           1           1           1           1
                1           1           1           1           1           1           1
0 24            1           1           1           1           1           1           1           1           1           1
                1           1           1           1           1           1           1           1           1           1
                1           1           1           1           1           1           1
0 25            1           1           1           1           1           1           1           1           1           1
                1           1           1           1           1           1           1           1           1           1
                1           1           1           1           1           1           1
0 26            1           1           1           1           1           1           1           1           1           1
                1           1           1           1           1           1           1           1           1           1
                1           1           1           1           1           1           1
0 27            1           1           1           1           1           1           1           1           1           1
                1           1           1           1           1           1           1           1           1           1
                1           1           1           1           1           1           1

 IBOUND                   =              1 FOR LAYER   5

 POROSITY                 =  0.3000000     FOR LAYER   1

 CONFINING BED POROSITY   =  0.3000000     FOR LAYER   1

 POROSITY                 =  0.3000000     FOR LAYER   2

 POROSITY                 =  0.3000000     FOR LAYER   3

 POROSITY                 =  0.3000000     FOR LAYER   4

 POROSITY                 =  0.3000000     FOR LAYER   5
  
  ---------------
 HEADS WERE READ FOR LAYER   1, STRESS PERIOD   1 TIME STEP    1
 HEADS WERE READ FOR LAYER   2, STRESS PERIOD   1 TIME STEP    1
 HEADS WERE READ FOR LAYER   3, STRESS PERIOD   1 TIME STEP    1
 HEADS WERE READ FOR LAYER   4, STRESS PERIOD   1 TIME STEP    1
 HEADS WERE READ FOR LAYER   5, STRESS PERIOD   1 TIME STEP    1
 HEADS HAVE BEEN READ
 READING BCF BUDGET DATA FOR STRESS PERIOD    1 , TIME STEP    1 ...
   BCF FLOW RATES HAVE BEEN READ
 WELL DATA BEING READ FOR STRESS PERIOD    1 , TIME STEP    1
 RECHARGE DATA BEING READ FOR STRESS PERIOD    1 , TIME STEP    1

 RECHARGE RATE            =  0.4500000E-02
 RIVER DATA BEING READ FOR STRESS PERIOD    1 , TIME STEP    1
  
      0 CELLS HAD ERRORS >   0.1000
   MAXIMUM ERROR =    0.0938% IN ROW   14 COL   26 LAYER    5
  
 ***************************
 DATA FOR CELL: ROW  14, COLUMN  14, LAYER   4
 IBOUND=      2 HEAD=    0.25122E+03 POROSITY= 0.300
 X1=    0.40100E+04 X2=    0.40500E+04 (X2-X1)=    0.40000E+02
 Y1=    0.40100E+04 Y2=    0.40500E+04 (Y2-Y1)=    0.40000E+02
 Z1=    0.50000E+02 Z2=    0.10000E+03 (Z2-Z1)=    0.50000E+02
 VOLUMETRIC FLOW (Q1-Q6) AND VELOCITY (V1-V6) AT CELL FACES
 X(FACES 1&2): Q1=  1.97558E+04 Q2= -1.96520E+04 V1=  3.293E+01 V2= -3.275E+01
 Y(FACES 3&4): Q3=  1.97041E+04 Q4= -1.97041E+04 V3=  3.284E+01 V4= -3.284E+01
 Z(FACES 5&6): Q5=  5.83128E+02 Q6= -6.00922E+02 V5=  1.215E+00 V6= -1.252E+00
            INFLOW                              OUTFLOW
            ------                              -------
  FLOW ACROSS FACES =   8.00000E+04 FLOW ACROSS FACES =   0.00000E+00
        NET SOURCES =   0.00000E+00         NET SINKS =   8.00000E+04
            STORAGE =   0.00000E+00           STORAGE =   0.00000E+00
  -------------------               --------------------- 
       TOTAL INFLOW =   8.00000E+04     TOTAL OUTFLOW =   8.00000E+04
 IN - OUT =      0.00E+00
 PERCENT ERROR =   0.00000
  
 ***************************
    
 TRAVEL TIME SUMMARY FOR ALL PARTICLES:
 MINIMUM TRAVEL TIME =   3.07695E-02
 MAXIMUM TRAVEL TIME =   2.82990E+05
 AVERAGE TRAVEL TIME =   1.46916E+04
   78.5% OF THE PARTICLES HAD TRAVEL TIMES LESS THAN THE AVERAGE TRAVEL TIME
    
       0 PARTICLES REMAIN ACTIVE
    2916 PARTICLES STOPPED AT INTERNAL SINKS/SOURCES OR BOUNDARIES
       0 PARTICLES STOPPED IN AN AUTOMATIC TERMINATION ZONE
       0 PARTICLES WERE STRANDED IN INACTIVE CELLS
       0 PARTICLES WERE NOT RELEASED
 -----
    2916 PARTICLES ACCOUNTED FOR OUT OF A TOTAL OF    2916
