MODPATH Version 3.00 (V3, Release 2, 6-2000)                                    

 FILE UNIT NUMBER  10 HAS BEEN CONNECTED TO <../data/demo-t.mp>
 FILE UNIT NUMBER  11 HAS BEEN CONNECTED TO <../data/demo-t.wel>
 FILE UNIT NUMBER  12 HAS BEEN CONNECTED TO <../data/demo-t.riv>
 FILE UNIT NUMBER  13 HAS BEEN CONNECTED TO <../data/demo-t.rch>
 FILE UNIT NUMBER  50 HAS BEEN CONNECTED TO <../data/demo-t.bud>
 FILE UNIT NUMBER  60 HAS BEEN CONNECTED TO <../data/demo-t.hed>
 FILE UNIT NUMBER  70 WILL BE CONNECTED TO <../data/demo-t.cbf>
 FILE UNIT NUMBER  75 WILL BE CONNECTED TO <endpoint.t3>

 MAXIMUM NUMBER OF PARTICLES IS   500000
 4543559 ELEMENTS OUT OF 15000000 USED IN THE "A" ARRAY
  
   27 COLUMNS   27 ROWS    5 LAYERS    1 CONFINING LAYERS
 IGRID (GRID TYPE CODE) IS 1
  
 LAYCON (LAYER TYPE CODES):
  1  0  0  0  0
  
 NCON (CONFINING LAYER CODES):
  1  0  0  0  0



           DELR                    
 READING ON UNIT  10 WITH FORMAT: (FREE)              
   400.00       400.00       400.00       400.00       400.00       400.00       400.00       400.00       300.00       200.00    
   150.00       100.00       60.000       40.000       60.000       100.00       150.00       200.00       300.00       400.00    
   400.00       400.00       400.00       400.00       400.00       400.00       400.00    



           DELC                    
 READING ON UNIT  10 WITH FORMAT: (FREE)              
   400.00       400.00       400.00       400.00       400.00       400.00       400.00       400.00       300.00       200.00    
   150.00       100.00       60.000       40.000       60.000       100.00       150.00       200.00       300.00       400.00    
   400.00       400.00       400.00       400.00       400.00       400.00       400.00    



           DELZ (Z SPACING)        
 READING ON UNIT  10 WITH FORMAT: (FREE)              
   100.00       50.000       50.000       50.000       50.000    



           DELZCB (CB THICKNESS)   
 READING ON UNIT  10 WITH FORMAT: (FREE)              
   20.000       0.0000       0.0000       0.0000       0.0000    
  
 BOTTOM ELEVATION OF LAYER 1 IS  0.22000E+03

 OPENING FILE ON UNIT  91:
 ibound.1                                                                        



           IBOUND                   FOR LAYER   1
 READING ON UNIT  91 WITH FORMAT: (FREE)              

                1           2           3           4           5           6           7           8           9          10
               11          12          13          14          15          16          17          18          19          20
               21          22          23          24          25          26          27
 ............................................................................................................................
0  1            1           1           1           1           1           1           1           1           1           1
                1           1           1           1           1           1           1           1           1           1
                1           1           1           1           1           1           1
0  2            1           1           1           1           1           1           1           1           1           1
                1           1           1           1           1           1           1           1           1           1
                1           1           1           1           1           1           1
0  3            1           1           1           1           1           1           1           1           1           1
                1           1           1           1           1           1           1           1           1           1
                1           1           1           1           1           1           1
0  4            1           1           1           1           1           1           1           1           1           1
                1           1           1           1           1           1           1           1           1           1
                1           1           1           1           1           1           1
0  5            1           1           1           1           1           1           1           1           1           1
                1           1           1           1           1           1           1           1           1           1
                1           1           1           1           1           1           1
0  6            1           1           1           1           1           1           1           1           1           1
                1           1           1           1           1           1           1           1           1           1
                1           1           1           1           1           1           1
0  7            1           1           1           1           1           1           1           1           1           1
                1           1           1           1           1           1           1           1           1           1
                1           1           1           1           1           1           1
0  8            1           1           1           1           1           1           1           1           1           1
                1           1           1           1           1           1           1           1           1           1
                1           1           1           1           1           1           1
0  9            1           1           1           1           1           1           1           1           1           1
                1           1           1           1           1           1           1           1           1           1
                1           1           1           1           1           1           1
0 10            1           1           1           1           1           1           1           1           1           1
                1           1           1           1           1           1           1           1           1           1
                1           1           1           1           1           1           1
0 11            1           1           1           1           1           1           1           1           1           1
                1           1           1           1           1           1           1           1           1           1
                1           1           1           1           1           1           1
0 12            1           1           1           1           1           1           1           1           1           1
                1           1           1           1           1           1           1           1           1           1
                1           1           1           1           1           1           1
0 13            1           1           1           1           1           1           1           1           1           1
                1           1           1           1           1           1           1           1           1           1
                1           1           1           1           1           1           1
0 14            1           1           1           1           1           1           1           1           1           1
                1           1           1           3           1           1           1           1           1           1
                1           1           1           1           1           1           1
0 15            1           1           1           1           1           1           1           1           1           1
                1           1           1           1           1           1           1           1           1           1
                1           1           1           1           1           1           1
0 16            1           1           1           1           1           1           1           1           1           1
                1           1           1           1           1           1           1           1           1           1
                1           1           1           1           1           1           1
0 17            1           1           1           1           1           1           1           1           1           1
                1           1           1           1           1           1           1           1           1           1
                1           1           1           1           1           1           1
0 18            1           1           1           1           1           1           1           1           1           1
                1           1           1           1           1           1           1           1           1           1
                1           1           1           1           1           1           1
0 19            1           1           1           1           1           1           1           1           1           1
                1           1           1           1           1           1           1           1           1           1
                1           1           1           1           1           1           1
0 20            1           1           1           1           1           1           1           1           1           1
                1           1           1           1           1           1           1           1           1           1
                1           1           1           1           1           1           1
0 21            1           1           1           1           1           1           1           1           1           1
                1           1           1           1           1           1           1           1           1           1
                1           1           1           1           1           1           1
0 22            1           1           1           1           1           1           1           1           1           1
                1           1           1           1           1           1           1           1           1           1
                1           1           1           1           1           1           1
0 23            1           1           1           1           1           1           1           1           1           1
                1           1           1           1           1           1           1           1           1           1
                1           1           1           1           1           1           1
0 24            1           1           1           1           1           1           1           1           1           1
                1           1           1           1           1           1           1           1           1           1
                1           1           1           1           1           1           1
0 25            1           1           1           1           1           1           1           1           1           1
                1           1           1           1           1           1           1           1           1           1
                1           1           1           1           1           1           1
0 26            1           1           1           1           1           1           1           1           1           1
                1           1           1           1           1           1           1           1           1           1
                1           1           1           1           1           1           1
0 27            1           1           1           1           1           1           1           1           1           1
                1           1           1           1           1           1           1           1           1           1
                1           1           1           1           1           1           1

 IBOUND                   =              1 FOR LAYER   2

 IBOUND                   =              1 FOR LAYER   3

 OPENING FILE ON UNIT  91:
 ibound.4                                                                        



           IBOUND                   FOR LAYER   4
 READING ON UNIT  91 WITH FORMAT: (FREE)              

                1           2           3           4           5           6           7           8           9          10
               11          12          13          14          15          16          17          18          19          20
               21          22          23          24          25          26          27
 ............................................................................................................................
0  1            1           1           1           1           1           1           1           1           1           1
                1           1           1           1           1           1           1           1           1           1
                1           1           1           1           1           1           1
0  2            1           1           1           1           1           1           1           1           1           1
                1           1           1           1           1           1           1           1           1           1
                1           1           1           1           1           1           1
0  3            1           1           1           1           1           1           1           1           1           1
                1           1           1           1           1           1           1           1           1           1
                1           1           1           1           1           1           1
0  4            1           1           1           1           1           1           1           1           1           1
                1           1           1           1           1           1           1           1           1           1
                1           1           1           1           1           1           1
0  5            1           1           1           1           1           1           1           1           1           1
                1           1           1           1           1           1           1           1           1           1
                1           1           1           1           1           1           1
0  6            1           1           1           1           1           1           1           1           1           1
                1           1           1           1           1           1           1           1           1           1
                1           1           1           1           1           1           1
0  7            1           1           1           1           1           1           1           1           1           1
                1           1           1           1           1           1           1           1           1           1
                1           1           1           1           1           1           1
0  8            1           1           1           1           1           1           1           1           1           1
                1           1           1           1           1           1           1           1           1           1
                1           1           1           1           1           1           1
0  9            1           1           1           1           1           1           1           1           1           1
                1           1           1           1           1           1           1           1           1           1
                1           1           1           1           1           1           1
0 10            1           1           1           1           1           1           1           1           1           1
                1           1           1           1           1           1           1           1           1           1
                1           1           1           1           1           1           1
0 11            1           1           1           1           1           1           1           1           1           1
                1           1           1           1           1           1           1           1           1           1
                1           1           1           1           1           1           1
0 12            1           1           1           1           1           1           1           1           1           1
                1           1           1           1           1           1           1           1           1           1
                1           1           1           1           1           1           1
0 13            1           1           1           1           1           1           1           1           1           1
                1           1           1           1           1           1           1           1           1           1
                1           1           1           1           1           1           1
0 14            1           1           1           1           1           1           1           1           1           1
                1           1           1           2           1           1           1           1           1           1
                1           1           1           1           1           1           1
0 15            1           1           1           1           1           1           1           1           1           1
                1           1           1           1           1           1           1           1           1           1
                1           1           1           1           1           1           1
0 16            1           1           1           1           1           1           1           1           1           1
                1           1           1           1           1           1           1           1           1           1
                1           1           1           1           1           1           1
0 17            1           1           1           1           1           1           1           1           1           1
                1           1           1           1           1           1           1           1           1           1
                1           1           1           1           1           1           1
0 18            1           1           1           1           1           1           1           1           1           1
                1           1           1           1           1           1           1           1           1           1
                1           1           1           1           1           1           1
0 19            1           1           1           1           1           1           1           1           1           1
                1           1           1           1           1           1           1           1           1           1
                1           1           1           1           1           1           1
0 20            1           1           1           1           1           1           1           1           1           1
                1           1           1           1           1           1           1           1           1           1
                1           1           1           1           1           1           1
0 21            1           1           1           1           1           1           1           1           1           1
                1           1           1           1           1           1           1           1           1           1
                1           1           1           1           1           1           1
0 22            1           1           1           1           1           1           1           1           1           1
                1           1           1           1           1           1           1           1           1           1
                1           1           1           1           1           1           1
0 23            1           1           1           1           1           1           1           1           1           1
                1           1           1           1           1           1           1           1           1           1
                1           1           1           1           1           1           1
0 24            1           1           1           1           1           1           1           1           1           1
                1           1           1           1           1           1           1           1           1           1
                1           1           1           1           1           1           1
0 25            1           1           1           1           1           1           1           1           1           1
                1           1           1           1           1           1           1           1           1           1
                1           1           1           1           1           1           1
0 26            1           1           1           1           1           1           1           1           1           1
                1           1           1           1           1           1           1           1           1           1
                1           1           1           1           1           1           1
0 27            1           1           1           1           1           1           1           1           1           1
                1           1           1           1           1           1           1           1           1           1
                1           1           1           1           1           1           1

 IBOUND                   =              1 FOR LAYER   5

 POROSITY                 =  0.3000000     FOR LAYER   1

 CONFINING BED POROSITY   =  0.3000000     FOR LAYER   1

 POROSITY                 =  0.3000000     FOR LAYER   2

 POROSITY                 =  0.3000000     FOR LAYER   3

 POROSITY                 =  0.3000000     FOR LAYER   4

 POROSITY                 =  0.3000000     FOR LAYER   5

 TIME AT BEGINNING OF SIMULATION =   0.000000E+00
 PERIOD   1:  LENGTH =   0.182500E+06  STEPS =   1  EXPANSION FACTOR = 1.000
 PERIOD   2:  LENGTH =   0.109500E+05  STEPS =   8  EXPANSION FACTOR = 2.000
 PERIOD   3:  LENGTH =   0.456250E+06  STEPS =   1  EXPANSION FACTOR = 1.000
 TIME STEP SUMMARY:
 PERIOD   1 STEP   1: DELT =  0.182500E+06 TIME AT END OF STEP =  0.182500E+06
 PERIOD   2 STEP   1: DELT =  0.429412E+02 TIME AT END OF STEP =  0.182543E+06
 PERIOD   2 STEP   2: DELT =  0.858824E+02 TIME AT END OF STEP =  0.182629E+06
 PERIOD   2 STEP   3: DELT =  0.171765E+03 TIME AT END OF STEP =  0.182801E+06
 PERIOD   2 STEP   4: DELT =  0.343529E+03 TIME AT END OF STEP =  0.183144E+06
 PERIOD   2 STEP   5: DELT =  0.687059E+03 TIME AT END OF STEP =  0.183831E+06
 PERIOD   2 STEP   6: DELT =  0.137412E+04 TIME AT END OF STEP =  0.185205E+06
 PERIOD   2 STEP   7: DELT =  0.274824E+04 TIME AT END OF STEP =  0.187954E+06
 PERIOD   2 STEP   8: DELT =  0.549647E+04 TIME AT END OF STEP =  0.193450E+06
 PERIOD   3 STEP   1: DELT =  0.456250E+06 TIME AT END OF STEP =  0.649700E+06

  
 REFERENCE TIME DATA:
     STRESS PERIOD =   3
     TIME STEP =   1
     RELATIVE TIME WITHIN TIME STEP = 0.00000
     ABSOLUTE REFERENCE TIME =   0.19345E+06
  
 -------------------------------------------------------------
 FLOW AND HEAD DATA WILL BE READ FROM COMPOSITE BUDGET FILE...
 -------------------------------------------------------------
  
 COMPUTE BUDGETS FOR MODFLOW CUMULATIVE TIME STEPS      1 THROUGH     10
  
 PERIOD  1, STEP  1:     0 CELLS HAD ERRORS >   0.1000%
   MAXIMUM ERROR =    0.0886% IN ROW   14 COL   26 LAYER    5
  
 PERIOD  2, STEP  1:     0 CELLS HAD ERRORS >   0.1000%
   MAXIMUM ERROR =   -0.0199% IN ROW   14 COL   22 LAYER    5
  
 PERIOD  2, STEP  2:     0 CELLS HAD ERRORS >   0.1000%
   MAXIMUM ERROR =   -0.0858% IN ROW   14 COL   26 LAYER    5
  
 PERIOD  2, STEP  3:     0 CELLS HAD ERRORS >   0.1000%
   MAXIMUM ERROR =   -0.0210% IN ROW   14 COL   23 LAYER    4
  
 PERIOD  2, STEP  4:     0 CELLS HAD ERRORS >   0.1000%
   MAXIMUM ERROR =   -0.0513% IN ROW   14 COL   23 LAYER    4
  
 PERIOD  2, STEP  5:     0 CELLS HAD ERRORS >   0.1000%
   MAXIMUM ERROR =   -0.0755% IN ROW   14 COL   27 LAYER    5
  
 PERIOD  2, STEP  6:     5 CELLS HAD ERRORS >   0.1000%
   MAXIMUM ERROR =   -0.1598% IN ROW   14 COL   25 LAYER    5
  CELL-BY-CELL ERROR SUMMARY:  ROW  COLUMN  LAYER  ERROR(%)  ERROR(ABSOLUTE)
   14   24    4  -0.1050   -0.66915E-02
   14   24    5  -0.1063   -0.65651E-02
   14   25    5  -0.1598   -0.78959E-02
   14   26    5  -0.1457   -0.91419E-02
   14   27    5  -0.1356   -0.72312E-02
  
 PERIOD  2, STEP  7:     4 CELLS HAD ERRORS >   0.1000%
   MAXIMUM ERROR =   -0.1429% IN ROW   14 COL   26 LAYER    5
  CELL-BY-CELL ERROR SUMMARY:  ROW  COLUMN  LAYER  ERROR(%)  ERROR(ABSOLUTE)
   14   25    4  -0.1004   -0.62146E-02
   14   25    5  -0.1327   -0.59690E-02
   14   26    5  -0.1429   -0.69981E-02
   14   27    5  -0.1213   -0.55852E-02
  
 PERIOD  2, STEP  8:     0 CELLS HAD ERRORS >   0.1000%
   MAXIMUM ERROR =   -0.0450% IN ROW   14 COL   26 LAYER    5
  
 PERIOD  3, STEP  1:     0 CELLS HAD ERRORS >   0.1000%
   MAXIMUM ERROR =   -0.0872% IN ROW   14 COL   26 LAYER    5
  
 INITIAL BUDGET AND HEAD DATA READ FROM CBF FOR:
          PERIOD    3  STEP     1  (CUMULATIVE TIME STEP =     10)
    
 TRAVEL TIME SUMMARY FOR ALL PARTICLES:
 MINIMUM TRAVEL TIME =   0.00000E+00
 MAXIMUM TRAVEL TIME =   3.13229E+05
 AVERAGE TRAVEL TIME =   1.54213E+04
   75.6% OF THE PARTICLES HAD TRAVEL TIMES LESS THAN THE AVERAGE TRAVEL TIME
    
       0 PARTICLES REMAIN ACTIVE
    2808 PARTICLES STOPPED AT INTERNAL SINKS/SOURCES OR BOUNDARIES
       0 PARTICLES STOPPED IN AN AUTOMATIC TERMINATION ZONE
       0 PARTICLES WERE STRANDED IN INACTIVE CELLS
       0 PARTICLES WERE NOT RELEASED
 -----
    2808 PARTICLES ACCOUNTED FOR OUT OF A TOTAL OF    2808
