@ [ MODPATH Version 4.00 (V4, Release 2, 4-2001) (TREF=   0.000000E+00 ) ]
   0       1    8   14    1  2.81250E+03  4.03000E+03  3.00362E+02  9.99900E-01  0.00000E+00       1
   0       2    8   14    1  2.83750E+03  4.03000E+03  3.00362E+02  9.99900E-01  0.00000E+00       1
   0       3    8   14    1  2.86250E+03  4.03000E+03  3.00362E+02  9.99900E-01  0.00000E+00       1
   0       4    8   14    1  2.88750E+03  4.03000E+03  3.00362E+02  9.99900E-01  0.00000E+00       1
   0       5    8   14    1  2.91250E+03  4.03000E+03  3.00362E+02  9.99900E-01  0.00000E+00       1
   0       6    8   14    1  2.93750E+03  4.03000E+03  3.00362E+02  9.99900E-01  0.00000E+00       1
   0       7    8   14    1  2.96250E+03  4.03000E+03  3.00362E+02  9.99900E-01  0.00000E+00       1
   0       8    8   14    1  2.98750E+03  4.03000E+03  3.00362E+02  9.99900E-01  0.00000E+00       1
   0       9    8   14    1  3.01250E+03  4.03000E+03  3.00362E+02  9.99900E-01  0.00000E+00       1
   0      10    8   14    1  3.03750E+03  4.03000E+03  3.00362E+02  9.99900E-01  0.00000E+00       1
   0      11    8   14    1  3.06250E+03  4.03000E+03  3.00362E+02  9.99900E-01  0.00000E+00       1
   0      12    8   14    1  3.08750E+03  4.03000E+03  3.00362E+02  9.99900E-01  0.00000E+00       1
   0      13    8   14    1  3.11250E+03  4.03000E+03  3.00362E+02  9.99900E-01  0.00000E+00       1
   0      14    8   14    1  3.13750E+03  4.03000E+03  3.00362E+02  9.99900E-01  0.00000E+00       1
   0      15    8   14    1  3.16250E+03  4.03000E+03  3.00362E+02  9.99900E-01  0.00000E+00       1
   0      16    8   14    1  3.18750E+03  4.03000E+03  3.00362E+02  9.99900E-01  0.00000E+00       1
   0      17    9   14    1  3.20938E+03  4.03000E+03  2.99797E+02  9.99900E-01  0.00000E+00       1
   0      18    9   14    1  3.22813E+03  4.03000E+03  2.99797E+02  9.99900E-01  0.00000E+00       1
   0      19    9   14    1  3.24688E+03  4.03000E+03  2.99797E+02  9.99900E-01  0.00000E+00       1
   0      20    9   14    1  3.26563E+03  4.03000E+03  2.99797E+02  9.99900E-01  0.00000E+00       1
   0      21    9   14    1  3.28438E+03  4.03000E+03  2.99797E+02  9.99900E-01  0.00000E+00       1
   0      22    9   14    1  3.30313E+03  4.03000E+03  2.99797E+02  9.99900E-01  0.00000E+00       1
   0      23    9   14    1  3.32188E+03  4.03000E+03  2.99797E+02  9.99900E-01  0.00000E+00       1
   0      24    9   14    1  3.34063E+03  4.03000E+03  2.99797E+02  9.99900E-01  0.00000E+00       1
   0      25    9   14    1  3.35938E+03  4.03000E+03  2.99797E+02  9.99900E-01  0.00000E+00       1
   0      26    9   14    1  3.37813E+03  4.03000E+03  2.99797E+02  9.99900E-01  0.00000E+00       1
   0      27    9   14    1  3.39688E+03  4.03000E+03  2.99797E+02  9.99900E-01  0.00000E+00       1
   0      28    9   14    1  3.41563E+03  4.03000E+03  2.99797E+02  9.99900E-01  0.00000E+00       1
   0      29    9   14    1  3.43438E+03  4.03000E+03  2.99797E+02  9.99900E-01  0.00000E+00       1
   0      30    9   14    1  3.45313E+03  4.03000E+03  2.99797E+02  9.99900E-01  0.00000E+00       1
   0      31    9   14    1  3.47188E+03  4.03000E+03  2.99797E+02  9.99900E-01  0.00000E+00       1
   0      32    9   14    1  3.49063E+03  4.03000E+03  2.99797E+02  9.99900E-01  0.00000E+00       1
   1       1    9   14    1  3.27902E+03  4.02992E+03  2.73916E+02  6.75593E-01  1.82500E+03       1
   1       2    9   14    1  3.30806E+03  4.02992E+03  2.73887E+02  6.75225E-01  1.82500E+03       1
   1       3    9   14    1  3.33708E+03  4.02992E+03  2.73859E+02  6.74877E-01  1.82500E+03       1
   1       4    9   14    1  3.36609E+03  4.02992E+03  2.73833E+02  6.74549E-01  1.82500E+03       1
   1       5    9   14    1  3.39509E+03  4.02992E+03  2.73808E+02  6.74240E-01  1.82500E+03       1
   1       6    9   14    1  3.42408E+03  4.02992E+03  2.73785E+02  6.73950E-01  1.82500E+03       1
   1       7    9   14    1  3.45305E+03  4.02992E+03  2.73763E+02  6.73679E-01  1.82500E+03       1
   1       8    9   14    1  3.48201E+03  4.02992E+03  2.73743E+02  6.73426E-01  1.82500E+03       1
   1       9   10   14    1  3.51103E+03  4.02992E+03  2.73419E+02  6.73069E-01  1.82500E+03       1
   1      10   10   14    1  3.54012E+03  4.02991E+03  2.73377E+02  6.72544E-01  1.82500E+03       1
   1      11   10   14    1  3.56919E+03  4.02991E+03  2.73338E+02  6.72049E-01  1.82500E+03       1
   1      12   10   14    1  3.59825E+03  4.02991E+03  2.73301E+02  6.71585E-01  1.82500E+03       1
   1      13   10   14    1  3.62728E+03  4.02991E+03  2.73266E+02  6.71149E-01  1.82500E+03       1
   1      14   10   14    1  3.65629E+03  4.02991E+03  2.73234E+02  6.70742E-01  1.82500E+03       1
   1      15   10   14    1  3.68528E+03  4.02991E+03  2.73204E+02  6.70363E-01  1.82500E+03       1
   1      16   11   14    1  3.71431E+03  4.02991E+03  2.72952E+02  6.69920E-01  1.82500E+03       1
   1      17   11   14    1  3.73967E+03  4.02991E+03  2.72920E+02  6.69517E-01  1.82500E+03       1
   1      18   11   14    1  3.76131E+03  4.02991E+03  2.72897E+02  6.69234E-01  1.82500E+03       1
   1      19   11   14    1  3.78294E+03  4.02991E+03  2.72876E+02  6.68964E-01  1.82500E+03       1
   1      20   11   14    1  3.80456E+03  4.02991E+03  2.72855E+02  6.68703E-01  1.82500E+03       1
   1      21   11   14    1  3.82617E+03  4.02991E+03  2.72836E+02  6.68453E-01  1.82500E+03       1
   1      22   11   14    1  3.84778E+03  4.02991E+03  2.72817E+02  6.68213E-01  1.82500E+03       1
   1      23   12   14    1  3.86944E+03  4.02991E+03  2.72633E+02  6.67926E-01  1.82500E+03       1
   1      24   12   14    1  3.89110E+03  4.02991E+03  2.72611E+02  6.67643E-01  1.82500E+03       1
   1      25   12   14    1  3.91275E+03  4.02992E+03  2.72590E+02  6.67372E-01  1.82500E+03       1
   1      26   12   14    1  3.93439E+03  4.02992E+03  2.72569E+02  6.67111E-01  1.82500E+03       1
   1      27   13   14    1  3.95604E+03  4.02992E+03  2.72444E+02  6.66856E-01  1.82500E+03       1
   1      28   13   14    1  3.97771E+03  4.02992E+03  2.72424E+02  6.66601E-01  1.82500E+03       1
   1      29   13   14    1  3.99937E+03  4.02992E+03  2.72405E+02  6.66356E-01  1.82500E+03       1
   1      30   14   14    1  4.02104E+03  4.02992E+03  2.72320E+02  6.66121E-01  1.82500E+03       1
   1      31   14   14    1  4.04272E+03  4.02992E+03  2.72302E+02  6.65896E-01  1.82500E+03       1
   1      32   15   14    1  4.06442E+03  4.02992E+03  2.72219E+02  6.65688E-01  1.82500E+03       1
   1      33    9   14    1  3.22904E+03  4.02993E+03  2.76431E+02  7.07106E-01  1.82500E+03       1
   1      34    9   14    1  3.25767E+03  4.02993E+03  2.76401E+02  7.06734E-01  1.82500E+03       1
   1      35    9   14    1  3.28630E+03  4.02993E+03  2.76373E+02  7.06384E-01  1.82500E+03       1
   1      36    9   14    1  3.31492E+03  4.02993E+03  2.76347E+02  7.06053E-01  1.82500E+03       1
   1      37    9   14    1  3.34352E+03  4.02993E+03  2.76322E+02  7.05741E-01  1.82500E+03       1
   1      38    9   14    1  3.37212E+03  4.02992E+03  2.76299E+02  7.05449E-01  1.82500E+03       1
   1      39    9   14    1  3.40070E+03  4.02992E+03  2.76277E+02  7.05175E-01  1.82500E+03       1
   1      40    9   14    1  3.42927E+03  4.02992E+03  2.76256E+02  7.04920E-01  1.82500E+03       1
   1      41    9   14    1  3.45783E+03  4.02992E+03  2.76237E+02  7.04681E-01  1.82500E+03       1
   1      42    9   14    1  3.48638E+03  4.02992E+03  2.76220E+02  7.04459E-01  1.82500E+03       1
   1      43   10   14    1  3.51500E+03  4.02992E+03  2.75882E+02  7.04103E-01  1.82500E+03       1
   1      44   10   14    1  3.54367E+03  4.02992E+03  2.75845E+02  7.03635E-01  1.82500E+03       1
   1      45   10   14    1  3.57233E+03  4.02992E+03  2.75810E+02  7.03195E-01  1.82500E+03       1
   1      46   10   14    1  3.60096E+03  4.02992E+03  2.75777E+02  7.02785E-01  1.82500E+03       1
   1      47   10   14    1  3.62958E+03  4.02992E+03  2.75747E+02  7.02403E-01  1.82500E+03       1
   1      48   10   14    1  3.65817E+03  4.02992E+03  2.75719E+02  7.02049E-01  1.82500E+03       1
   1      49   10   14    1  3.68310E+03  4.02992E+03  2.75699E+02  7.01803E-01  1.82500E+03       1
   1      50   11   14    1  3.70440E+03  4.02992E+03  2.75457E+02  7.01624E-01  1.82500E+03       1
   1      51   11   14    1  3.72576E+03  4.02992E+03  2.75436E+02  7.01351E-01  1.82500E+03       1
   1      52   11   14    1  3.74711E+03  4.02992E+03  2.75415E+02  7.01088E-01  1.82500E+03       1
   1      53   11   14    1  3.76845E+03  4.02992E+03  2.75395E+02  7.00836E-01  1.82500E+03       1
   1      54   11   14    1  3.78978E+03  4.02992E+03  2.75376E+02  7.00595E-01  1.82500E+03       1
   1      55   11   14    1  3.81111E+03  4.02992E+03  2.75358E+02  7.00363E-01  1.82500E+03       1
   1      56   11   14    1  3.83243E+03  4.02992E+03  2.75340E+02  7.00142E-01  1.82500E+03       1
   1      57   12   14    1  3.85375E+03  4.02992E+03  2.75155E+02  6.99919E-01  1.82500E+03       1
   1      58   12   14    1  3.87512E+03  4.02992E+03  2.75134E+02  6.99656E-01  1.82500E+03       1
   1      59   12   14    1  3.89648E+03  4.02992E+03  2.75114E+02  6.99405E-01  1.82500E+03       1
   1      60   12   14    1  3.91784E+03  4.02992E+03  2.75095E+02  6.99163E-01  1.82500E+03       1
   1      61   12   14    1  3.93918E+03  4.02992E+03  2.75077E+02  6.98933E-01  1.82500E+03       1
   1      62   13   14    1  3.96054E+03  4.02993E+03  2.74949E+02  6.98704E-01  1.82500E+03       1
   1      63   13   14    1  3.98192E+03  4.02993E+03  2.74931E+02  6.98477E-01  1.82500E+03       1
   1      64   13   14    1  4.00329E+03  4.02993E+03  2.74914E+02  6.98260E-01  1.82500E+03       1
   1      65    8   14    1  3.17987E+03  4.02993E+03  2.79364E+02  7.38634E-01  1.82500E+03       1
   1      66    9   14    1  3.20798E+03  4.02993E+03  2.78939E+02  7.38531E-01  1.82500E+03       1
   1      67    9   14    1  3.23622E+03  4.02993E+03  2.78910E+02  7.38176E-01  1.82500E+03       1
   1      68    9   14    1  3.26444E+03  4.02993E+03  2.78884E+02  7.37843E-01  1.82500E+03       1
   1      69    9   14    1  3.29266E+03  4.02993E+03  2.78859E+02  7.37528E-01  1.82500E+03       1
   1      70    9   14    1  3.32086E+03  4.02993E+03  2.78835E+02  7.37233E-01  1.82500E+03       1
   1      71    9   14    1  3.34906E+03  4.02993E+03  2.78813E+02  7.36957E-01  1.82500E+03       1
   1      72    9   14    1  3.37724E+03  4.02993E+03  2.78793E+02  7.36699E-01  1.82500E+03       1
   1      73    9   14    1  3.40541E+03  4.02993E+03  2.78773E+02  7.36458E-01  1.82500E+03       1
   1      74    9   14    1  3.43357E+03  4.02993E+03  2.78755E+02  7.36235E-01  1.82500E+03       1
   1      75    9   14    1  3.46172E+03  4.02993E+03  2.78739E+02  7.36028E-01  1.82500E+03       1
   1      76    9   14    1  3.48986E+03  4.02993E+03  2.78724E+02  7.35837E-01  1.82500E+03       1
   1      77   10   14    1  3.51809E+03  4.02993E+03  2.78373E+02  7.35493E-01  1.82500E+03       1
   1      78   10   14    1  3.54635E+03  4.02993E+03  2.78340E+02  7.35080E-01  1.82500E+03       1
   1      79   10   14    1  3.57460E+03  4.02993E+03  2.78310E+02  7.34695E-01  1.82500E+03       1
   1      80   10   14    1  3.60282E+03  4.02993E+03  2.78281E+02  7.34338E-01  1.82500E+03       1
   1      81   10   14    1  3.62743E+03  4.02993E+03  2.78262E+02  7.34090E-01  1.82500E+03       1
   1      82   10   14    1  3.64843E+03  4.02993E+03  2.78250E+02  7.33937E-01  1.82500E+03       1
   1      83   10   14    1  3.66943E+03  4.02993E+03  2.78238E+02  7.33790E-01  1.82500E+03       1
   1      84   10   14    1  3.69042E+03  4.02993E+03  2.78227E+02  7.33650E-01  1.82500E+03       1
   1      85   11   14    1  3.71145E+03  4.02993E+03  2.77973E+02  7.33452E-01  1.82500E+03       1
   1      86   11   14    1  3.73251E+03  4.02993E+03  2.77954E+02  7.33208E-01  1.82500E+03       1
   1      87   11   14    1  3.75357E+03  4.02993E+03  2.77936E+02  7.32975E-01  1.82500E+03       1
   1      88   11   14    1  3.77462E+03  4.02993E+03  2.77918E+02  7.32752E-01  1.82500E+03       1
   1      89   11   14    1  3.79566E+03  4.02993E+03  2.77901E+02  7.32539E-01  1.82500E+03       1
   1      90   11   14    1  3.81670E+03  4.02993E+03  2.77885E+02  7.32335E-01  1.82500E+03       1
   1      91   11   14    1  3.83773E+03  4.02993E+03  2.77870E+02  7.32141E-01  1.82500E+03       1
   1      92   12   14    1  3.85877E+03  4.02993E+03  2.77677E+02  7.31932E-01  1.82500E+03       1
   1      93   12   14    1  3.87985E+03  4.02993E+03  2.77659E+02  7.31700E-01  1.82500E+03       1
   1      94   12   14    1  3.90092E+03  4.02993E+03  2.77641E+02  7.31478E-01  1.82500E+03       1
   1      95   12   14    1  3.92198E+03  4.02993E+03  2.77625E+02  7.31266E-01  1.82500E+03       1
   1      96   12   14    1  3.94304E+03  4.02993E+03  2.77609E+02  7.31064E-01  1.82500E+03       1
   1      97    8   14    1  3.13160E+03  4.02994E+03  2.81892E+02  7.70096E-01  1.82500E+03       1
   1      98    8   14    1  3.15925E+03  4.02994E+03  2.81892E+02  7.70096E-01  1.82500E+03       1
   1      99    8   14    1  3.18690E+03  4.02994E+03  2.81892E+02  7.70096E-01  1.82500E+03       1
   1     100    9   14    1  3.21465E+03  4.02994E+03  2.81444E+02  7.69921E-01  1.82500E+03       1
   1     101    9   14    1  3.24249E+03  4.02994E+03  2.81419E+02  7.69604E-01  1.82500E+03       1
   1     102    9   14    1  3.27031E+03  4.02994E+03  2.81395E+02  7.69306E-01  1.82500E+03       1
   1     103    9   14    1  3.29812E+03  4.02994E+03  2.81372E+02  7.69027E-01  1.82500E+03       1
   1     104    9   14    1  3.32592E+03  4.02994E+03  2.81352E+02  7.68767E-01  1.82500E+03       1
   1     105    9   14    1  3.35371E+03  4.02994E+03  2.81332E+02  7.68524E-01  1.82500E+03       1
   1     106    9   14    1  3.38149E+03  4.02994E+03  2.81314E+02  7.68299E-01  1.82500E+03       1
   1     107    9   14    1  3.40925E+03  4.02994E+03  2.81298E+02  7.68090E-01  1.82500E+03       1
   1     108    9   14    1  3.43701E+03  4.02994E+03  2.81282E+02  7.67898E-01  1.82500E+03       1
   1     109    9   14    1  3.46476E+03  4.02994E+03  2.81268E+02  7.67721E-01  1.82500E+03       1
   1     110    9   14    1  3.49249E+03  4.02994E+03  2.81256E+02  7.67561E-01  1.82500E+03       1
   1     111   10   14    1  3.52033E+03  4.02994E+03  2.80893E+02  7.67240E-01  1.82500E+03       1
   1     112   10   14    1  3.54819E+03  4.02994E+03  2.80864E+02  7.66881E-01  1.82500E+03       1
   1     113   10   14    1  3.57248E+03  4.02994E+03  2.80844E+02  7.66631E-01  1.82500E+03       1
   1     114   10   14    1  3.59321E+03  4.02994E+03  2.80832E+02  7.66476E-01  1.82500E+03       1
   1     115   10   14    1  3.61393E+03  4.02994E+03  2.80820E+02  7.66328E-01  1.82500E+03       1
   1     116   10   14    1  3.63465E+03  4.02994E+03  2.80809E+02  7.66187E-01  1.82500E+03       1
   1     117   10   14    1  3.65536E+03  4.02994E+03  2.80798E+02  7.66053E-01  1.82500E+03       1
   1     118   10   14    1  3.67607E+03  4.02994E+03  2.80788E+02  7.65925E-01  1.82500E+03       1
   1     119   10   14    1  3.69677E+03  4.02994E+03  2.80779E+02  7.65803E-01  1.82500E+03       1
   1     120   11   14    1  3.71754E+03  4.02994E+03  2.80514E+02  7.65596E-01  1.82500E+03       1
   1     121   11   14    1  3.73832E+03  4.02994E+03  2.80497E+02  7.65381E-01  1.82500E+03       1
   1     122   11   14    1  3.75909E+03  4.02994E+03  2.80481E+02  7.65176E-01  1.82500E+03       1
   1     123   11   14    1  3.77985E+03  4.02994E+03  2.80465E+02  7.64981E-01  1.82500E+03       1
   1     124   11   14    1  3.80061E+03  4.02994E+03  2.80451E+02  7.64794E-01  1.82500E+03       1
   1     125   11   14    1  3.82135E+03  4.02994E+03  2.80437E+02  7.64617E-01  1.82500E+03       1
   1     126   11   14    1  3.84210E+03  4.02994E+03  2.80423E+02  7.64450E-01  1.82500E+03       1
   1     127   12   14    1  3.86287E+03  4.02994E+03  2.80225E+02  7.64258E-01  1.82500E+03       1
   1     128   12   14    1  3.88366E+03  4.02994E+03  2.80209E+02  7.64054E-01  1.82500E+03       1
   1     129    8   14    1  3.08403E+03  4.02995E+03  2.84448E+02  8.01892E-01  1.82500E+03       1
   1     130    8   14    1  3.11128E+03  4.02995E+03  2.84448E+02  8.01892E-01  1.82500E+03       1
   1     131    8   14    1  3.13853E+03  4.02995E+03  2.84448E+02  8.01892E-01  1.82500E+03       1
   1     132    8   14    1  3.16579E+03  4.02995E+03  2.84448E+02  8.01892E-01  1.82500E+03       1
   1     133    8   14    1  3.19304E+03  4.02995E+03  2.84448E+02  8.01892E-01  1.82500E+03       1
   1     134    9   14    1  3.22044E+03  4.02995E+03  2.83978E+02  8.01670E-01  1.82500E+03       1
   1     135    9   14    1  3.24787E+03  4.02995E+03  2.83955E+02  8.01388E-01  1.82500E+03       1
   1     136    9   14    1  3.27529E+03  4.02995E+03  2.83934E+02  8.01126E-01  1.82500E+03       1
   1     137    9   14    1  3.30271E+03  4.02995E+03  2.83915E+02  8.00880E-01  1.82500E+03       1
   1     138    9   14    1  3.33011E+03  4.02995E+03  2.83896E+02  8.00653E-01  1.82500E+03       1
   1     139    9   14    1  3.35750E+03  4.02995E+03  2.83880E+02  8.00443E-01  1.82500E+03       1
   1     140    9   14    1  3.38488E+03  4.02995E+03  2.83864E+02  8.00249E-01  1.82500E+03       1
   1     141    9   14    1  3.41225E+03  4.02995E+03  2.83850E+02  8.00071E-01  1.82500E+03       1
   1     142    9   14    1  3.43961E+03  4.02995E+03  2.83837E+02  7.99909E-01  1.82500E+03       1
   1     143    9   14    1  3.46696E+03  4.02995E+03  2.83825E+02  7.99763E-01  1.82500E+03       1
   1     144    9   14    1  3.49430E+03  4.02995E+03  2.83815E+02  7.99632E-01  1.82500E+03       1
   1     145   10   14    1  3.51824E+03  4.02995E+03  2.83447E+02  7.99426E-01  1.82500E+03       1
   1     146   10   14    1  3.53870E+03  4.02995E+03  2.83435E+02  7.99270E-01  1.82500E+03       1
   1     147   10   14    1  3.55915E+03  4.02995E+03  2.83423E+02  7.99122E-01  1.82500E+03       1
   1     148   10   14    1  3.57960E+03  4.02995E+03  2.83412E+02  7.98979E-01  1.82500E+03       1
   1     149   10   14    1  3.60005E+03  4.02995E+03  2.83401E+02  7.98844E-01  1.82500E+03       1
   1     150   10   14    1  3.62049E+03  4.02995E+03  2.83391E+02  7.98715E-01  1.82500E+03       1
   1     151   10   14    1  3.64092E+03  4.02995E+03  2.83381E+02  7.98593E-01  1.82500E+03       1
   1     152   10   14    1  3.66135E+03  4.02995E+03  2.83372E+02  7.98477E-01  1.82500E+03       1
   1     153   10   14    1  3.68178E+03  4.02995E+03  2.83363E+02  7.98366E-01  1.82500E+03       1
   1     154   11   14    1  3.70221E+03  4.02995E+03  2.83095E+02  7.98252E-01  1.82500E+03       1
   1     155   11   14    1  3.72271E+03  4.02995E+03  2.83080E+02  7.98055E-01  1.82500E+03       1
   1     156   11   14    1  3.74320E+03  4.02995E+03  2.83065E+02  7.97868E-01  1.82500E+03       1
   1     157   11   14    1  3.76369E+03  4.02995E+03  2.83051E+02  7.97689E-01  1.82500E+03       1
   1     158   11   14    1  3.78417E+03  4.02995E+03  2.83037E+02  7.97521E-01  1.82500E+03       1
   1     159   11   14    1  3.80464E+03  4.02995E+03  2.83025E+02  7.97361E-01  1.82500E+03       1
   1     160   11   14    1  3.82510E+03  4.02995E+03  2.83013E+02  7.97210E-01  1.82500E+03       1
   1     161    8   14    1  3.03713E+03  4.02996E+03  2.87031E+02  8.34027E-01  1.82500E+03       1
   1     162    8   14    1  3.06399E+03  4.02996E+03  2.87031E+02  8.34027E-01  1.82500E+03       1
   1     163    8   14    1  3.09086E+03  4.02996E+03  2.87031E+02  8.34027E-01  1.82500E+03       1
   1     164    8   14    1  3.11772E+03  4.02996E+03  2.87031E+02  8.34027E-01  1.82500E+03       1
   1     165    8   14    1  3.14459E+03  4.02996E+03  2.87031E+02  8.34027E-01  1.82500E+03       1
   1     166    8   14    1  3.17145E+03  4.02996E+03  2.87031E+02  8.34027E-01  1.82500E+03       1
   1     167    8   14    1  3.19832E+03  4.02996E+03  2.87031E+02  8.34027E-01  1.82500E+03       1
   1     168    9   14    1  3.22536E+03  4.02996E+03  2.86540E+02  8.33778E-01  1.82500E+03       1
   1     169    9   14    1  3.25240E+03  4.02996E+03  2.86520E+02  8.33531E-01  1.82500E+03       1
   1     170    9   14    1  3.27942E+03  4.02996E+03  2.86502E+02  8.33302E-01  1.82500E+03       1
   1     171    9   14    1  3.30644E+03  4.02996E+03  2.86485E+02  8.33089E-01  1.82500E+03       1
   1     172    9   14    1  3.33345E+03  4.02996E+03  2.86469E+02  8.32893E-01  1.82500E+03       1
   1     173    9   14    1  3.36045E+03  4.02996E+03  2.86455E+02  8.32714E-01  1.82500E+03       1
   1     174    9   14    1  3.38744E+03  4.02996E+03  2.86442E+02  8.32551E-01  1.82500E+03       1
   1     175    9   14    1  3.41442E+03  4.02996E+03  2.86430E+02  8.32403E-01  1.82500E+03       1
   1     176    9   14    1  3.44138E+03  4.02996E+03  2.86420E+02  8.32271E-01  1.82500E+03       1
   1     177    9   14    1  3.46490E+03  4.02996E+03  2.86415E+02  8.32209E-01  1.82500E+03       1
   1     178    9   14    1  3.48498E+03  4.02996E+03  2.86415E+02  8.32209E-01  1.82500E+03       1
   1     179   10   14    1  3.50509E+03  4.02996E+03  2.86046E+02  8.32173E-01  1.82500E+03       1
   1     180   10   14    1  3.52527E+03  4.02996E+03  2.86035E+02  8.32029E-01  1.82500E+03       1
   1     181   10   14    1  3.54545E+03  4.02996E+03  2.86024E+02  8.31893E-01  1.82500E+03       1
   1     182   10   14    1  3.56562E+03  4.02996E+03  2.86014E+02  8.31762E-01  1.82500E+03       1
   1     183   10   14    1  3.58580E+03  4.02996E+03  2.86004E+02  8.31639E-01  1.82500E+03       1
   1     184   10   14    1  3.60596E+03  4.02996E+03  2.85995E+02  8.31523E-01  1.82500E+03       1
   1     185   10   14    1  3.62612E+03  4.02996E+03  2.85986E+02  8.31411E-01  1.82500E+03       1
   1     186   10   14    1  3.64628E+03  4.02996E+03  2.85977E+02  8.31307E-01  1.82500E+03       1
   1     187   10   14    1  3.66643E+03  4.02996E+03  2.85970E+02  8.31208E-01  1.82500E+03       1
   1     188   10   14    1  3.68658E+03  4.02995E+03  2.85962E+02  8.31116E-01  1.82500E+03       1
   1     189   11   14    1  3.70675E+03  4.02996E+03  2.85683E+02  8.30998E-01  1.82500E+03       1
   1     190   11   14    1  3.72697E+03  4.02996E+03  2.85670E+02  8.30828E-01  1.82500E+03       1
   1     191   11   14    1  3.74718E+03  4.02996E+03  2.85657E+02  8.30668E-01  1.82500E+03       1
   1     192   11   14    1  3.76739E+03  4.02996E+03  2.85645E+02  8.30516E-01  1.82500E+03       1
   1     193    8   14    1  2.99090E+03  4.02997E+03  2.89641E+02  8.66503E-01  1.82500E+03       1
   1     194    8   14    1  3.01738E+03  4.02997E+03  2.89641E+02  8.66503E-01  1.82500E+03       1
   1     195    8   14    1  3.04386E+03  4.02997E+03  2.89641E+02  8.66503E-01  1.82500E+03       1
   1     196    8   14    1  3.07034E+03  4.02997E+03  2.89641E+02  8.66503E-01  1.82500E+03       1
   1     197    8   14    1  3.09683E+03  4.02997E+03  2.89641E+02  8.66503E-01  1.82500E+03       1
   1     198    8   14    1  3.12331E+03  4.02997E+03  2.89641E+02  8.66503E-01  1.82500E+03       1
   1     199    8   14    1  3.14979E+03  4.02997E+03  2.89641E+02  8.66503E-01  1.82500E+03       1
   1     200    8   14    1  3.17627E+03  4.02997E+03  2.89641E+02  8.66503E-01  1.82500E+03       1
   1     201    9   14    1  3.20277E+03  4.02997E+03  2.89150E+02  8.66477E-01  1.82500E+03       1
   1     202    9   14    1  3.22943E+03  4.02997E+03  2.89131E+02  8.66246E-01  1.82500E+03       1
   1     203    9   14    1  3.25608E+03  4.02997E+03  2.89114E+02  8.66032E-01  1.82500E+03       1
   1     204    9   14    1  3.28272E+03  4.02997E+03  2.89098E+02  8.65834E-01  1.82500E+03       1
   1     205    9   14    1  3.30936E+03  4.02997E+03  2.89084E+02  8.65653E-01  1.82500E+03       1
   1     206    9   14    1  3.33598E+03  4.02997E+03  2.89071E+02  8.65489E-01  1.82500E+03       1
   1     207    9   14    1  3.36259E+03  4.02997E+03  2.89059E+02  8.65340E-01  1.82500E+03       1
   1     208    9   14    1  3.38919E+03  4.02996E+03  2.89048E+02  8.65206E-01  1.82500E+03       1
   1     209    9   14    1  3.41239E+03  4.02996E+03  2.89043E+02  8.65144E-01  1.82500E+03       1
   1     210    9   14    1  3.43219E+03  4.02996E+03  2.89043E+02  8.65144E-01  1.82500E+03       1
   1     211    9   14    1  3.45200E+03  4.02996E+03  2.89043E+02  8.65144E-01  1.82500E+03       1
   1     212    9   14    1  3.47180E+03  4.02996E+03  2.89043E+02  8.65144E-01  1.82500E+03       1
   1     213    9   14    1  3.49161E+03  4.02996E+03  2.89043E+02  8.65144E-01  1.82500E+03       1
   1     214   10   14    1  3.51147E+03  4.02996E+03  2.88657E+02  8.65069E-01  1.82500E+03       1
   1     215   10   14    1  3.53138E+03  4.02996E+03  2.88647E+02  8.64946E-01  1.82500E+03       1
   1     216   10   14    1  3.55129E+03  4.02996E+03  2.88638E+02  8.64828E-01  1.82500E+03       1
   1     217   10   14    1  3.57119E+03  4.02996E+03  2.88629E+02  8.64716E-01  1.82500E+03       1
   1     218   10   14    1  3.59108E+03  4.02996E+03  2.88621E+02  8.64610E-01  1.82500E+03       1
   1     219   10   14    1  3.61097E+03  4.02996E+03  2.88613E+02  8.64511E-01  1.82500E+03       1
   1     220   10   14    1  3.63086E+03  4.02996E+03  2.88605E+02  8.64418E-01  1.82500E+03       1
   1     221   10   14    1  3.65074E+03  4.02996E+03  2.88598E+02  8.64330E-01  1.82500E+03       1
   1     222   10   14    1  3.67062E+03  4.02996E+03  2.88592E+02  8.64248E-01  1.82500E+03       1
   1     223   10   14    1  3.69049E+03  4.02996E+03  2.88586E+02  8.64173E-01  1.82500E+03       1
   1     224   11   14    1  3.71040E+03  4.02996E+03  2.88297E+02  8.64059E-01  1.82500E+03       1
   1     225    8   14    1  2.94533E+03  4.02998E+03  2.92279E+02  8.99324E-01  1.82500E+03       1
   1     226    8   14    1  2.97144E+03  4.02998E+03  2.92279E+02  8.99324E-01  1.82500E+03       1
   1     227    8   14    1  2.99754E+03  4.02998E+03  2.92279E+02  8.99324E-01  1.82500E+03       1
   1     228    8   14    1  3.02364E+03  4.02998E+03  2.92279E+02  8.99324E-01  1.82500E+03       1
   1     229    8   14    1  3.04974E+03  4.02998E+03  2.92279E+02  8.99324E-01  1.82500E+03       1
   1     230    8   14    1  3.07585E+03  4.02998E+03  2.92279E+02  8.99324E-01  1.82500E+03       1
   1     231    8   14    1  3.10195E+03  4.02998E+03  2.92279E+02  8.99324E-01  1.82500E+03       1
   1     232    8   14    1  3.12805E+03  4.02998E+03  2.92279E+02  8.99324E-01  1.82500E+03       1
   1     233    8   14    1  3.15416E+03  4.02998E+03  2.92279E+02  8.99324E-01  1.82500E+03       1
   1     234    8   14    1  3.18026E+03  4.02998E+03  2.92279E+02  8.99324E-01  1.82500E+03       1
   1     235    9   14    1  3.20641E+03  4.02998E+03  2.91767E+02  8.99274E-01  1.82500E+03       1
   1     236    9   14    1  3.23269E+03  4.02997E+03  2.91751E+02  8.99074E-01  1.82500E+03       1
   1     237    9   14    1  3.25896E+03  4.02997E+03  2.91736E+02  8.98892E-01  1.82500E+03       1
   1     238    9   14    1  3.28522E+03  4.02997E+03  2.91723E+02  8.98726E-01  1.82500E+03       1
   1     239    9   14    1  3.31147E+03  4.02997E+03  2.91711E+02  8.98575E-01  1.82500E+03       1
   1     240    9   14    1  3.33771E+03  4.02997E+03  2.91700E+02  8.98440E-01  1.82500E+03       1
   1     241    9   14    1  3.36059E+03  4.02997E+03  2.91695E+02  8.98378E-01  1.82500E+03       1
   1     242    9   14    1  3.38013E+03  4.02997E+03  2.91695E+02  8.98378E-01  1.82500E+03       1
   1     243    9   14    1  3.39966E+03  4.02997E+03  2.91695E+02  8.98378E-01  1.82500E+03       1
   1     244    9   14    1  3.41920E+03  4.02997E+03  2.91695E+02  8.98378E-01  1.82500E+03       1
   1     245    9   14    1  3.43873E+03  4.02997E+03  2.91695E+02  8.98378E-01  1.82500E+03       1
   1     246    9   14    1  3.45827E+03  4.02997E+03  2.91695E+02  8.98378E-01  1.82500E+03       1
   1     247    9   14    1  3.47780E+03  4.02997E+03  2.91695E+02  8.98378E-01  1.82500E+03       1
   1     248    9   14    1  3.49734E+03  4.02997E+03  2.91695E+02  8.98378E-01  1.82500E+03       1
   1     249   10   14    1  3.51696E+03  4.02997E+03  2.91293E+02  8.98281E-01  1.82500E+03       1
   1     250   10   14    1  3.53660E+03  4.02997E+03  2.91284E+02  8.98175E-01  1.82500E+03       1
   1     251   10   14    1  3.55623E+03  4.02997E+03  2.91277E+02  8.98075E-01  1.82500E+03       1
   1     252   10   14    1  3.57586E+03  4.02997E+03  2.91269E+02  8.97981E-01  1.82500E+03       1
   1     253   10   14    1  3.59549E+03  4.02997E+03  2.91262E+02  8.97893E-01  1.82500E+03       1
   1     254   10   14    1  3.61511E+03  4.02997E+03  2.91256E+02  8.97810E-01  1.82500E+03       1
   1     255   10   14    1  3.63472E+03  4.02997E+03  2.91249E+02  8.97734E-01  1.82500E+03       1
   1     256   10   14    1  3.65433E+03  4.02997E+03  2.91244E+02  8.97663E-01  1.82500E+03       1
   1     257    8   14    1  2.90042E+03  4.02998E+03  2.94945E+02  9.32496E-01  1.82500E+03       1
   1     258    8   14    1  2.92615E+03  4.02998E+03  2.94945E+02  9.32496E-01  1.82500E+03       1
   1     259    8   14    1  2.95188E+03  4.02998E+03  2.94945E+02  9.32496E-01  1.82500E+03       1
   1     260    8   14    1  2.97761E+03  4.02998E+03  2.94945E+02  9.32496E-01  1.82500E+03       1
   1     261    8   14    1  3.00334E+03  4.02998E+03  2.94945E+02  9.32496E-01  1.82500E+03       1