MODPATH_ENDPOINT_FILE         7         0
    1       225       225       225   0.0000000000E+00
       0       0      68       0       0     157       0       0       0       0
         1
PG1             
END HEADER
         1         1         1    5  0.0000000000E+00  0.7758247198E+04        85    1  0.1666666667E+00  0.1666666667E+00  0.1000000000E+01  0.2083333333E+04  0.8083333333E+04  0.3384895630E+03    1    6      1050    3  0.7690360869E+00  0.1000000000E+01  0.5188403029E+00  0.4884518043E+04  0.5500000000E+04  0.1037680606E+03    2    4
         2         1         2    5  0.0000000000E+00  0.7580234037E+04        85    1  0.5000000000E+00  0.1666666667E+00  0.1000000000E+01  0.2250000000E+04  0.8083333333E+04  0.3384895630E+03    1    6      1050    3  0.8231282927E+00  0.1000000000E+01  0.5433086138E+00  0.4911564146E+04  0.5500000000E+04  0.1086617228E+03    2    4
         3         1         3    5  0.0000000000E+00  0.7613889920E+04        85    1  0.8333333333E+00  0.1666666667E+00  0.1000000000E+01  0.2416666667E+04  0.8083333333E+04  0.3384895630E+03    1    6      1050    3  0.8789513935E+00  0.1000000000E+01  0.5546229045E+00  0.4939475697E+04  0.5500000000E+04  0.1109245809E+03    2    4
         4         1         4    5  0.0000000000E+00  0.8271190382E+04        85    1  0.1666666667E+00  0.5000000000E+00  0.1000000000E+01  0.2083333333E+04  0.8250000000E+04  0.3384895630E+03    1    6      1050    3  0.8438632930E+00  0.1000000000E+01  0.4836316131E+00  0.4921931646E+04  0.5500000000E+04  0.9672632262E+02    2    4
         5         1         5    5  0.0000000000E+00  0.8386438229E+04        85    1  0.5000000000E+00  0.5000000000E+00  0.1000000000E+01  0.2250000000E+04  0.8250000000E+04  0.3384895630E+03    1    6      1050    3  0.8985423179E+00  0.1000000000E+01  0.4928609511E+00  0.4949271159E+04  0.5500000000E+04  0.9857219023E+02    2    4
         6         1         6    5  0.0000000000E+00  0.8415490835E+04        85    1  0.8333333333E+00  0.5000000000E+00  0.1000000000E+01  0.2416666667E+04  0.8250000000E+04  0.3384895630E+03    1    6      1050    3  0.9557580525E+00  0.1000000000E+01  0.5040343639E+00  0.4977879026E+04  0.5500000000E+04  0.1008068728E+03    2    4
         7         1         7    5  0.0000000000E+00  0.9215176230E+04        85    1  0.1666666667E+00  0.8333333333E+00  0.1000000000E+01  0.2083333333E+04  0.8416666667E+04  0.3384895630E+03    1    6      1050    3  0.9259808156E+00  0.1000000000E+01  0.4324954046E+00  0.4962990408E+04  0.5500000000E+04  0.8649908092E+02    2    4
         8         1         8    5  0.0000000000E+00  0.9248528119E+04        85    1  0.5000000000E+00  0.8333333333E+00  0.1000000000E+01  0.2250000000E+04  0.8416666667E+04  0.3384895630E+03    1    6      1050    3  0.9821664148E+00  0.1000000000E+01  0.4445281647E+00  0.4991083207E+04  0.5500000000E+04  0.8890563294E+02    2    4
         9         1         9    5  0.0000000000E+00  0.9203624992E+04        85    1  0.8333333333E+00  0.8333333333E+00  0.1000000000E+01  0.2416666667E+04  0.8416666667E+04  0.3384895630E+03    1    6      1050    3  0.1000000000E+01  0.9539522296E+00  0.4587568627E+00  0.5000000000E+04  0.5476976115E+04  0.9175137255E+02    2    2
        10         1        10    5  0.0000000000E+00  0.7777738824E+04        86    1  0.1666666667E+00  0.1666666667E+00  0.1000000000E+01  0.2583333333E+04  0.8083333333E+04  0.3381924744E+03    1    6      1050    3  0.9446087238E+00  0.1000000000E+01  0.5594470411E+00  0.4972304362E+04  0.5500000000E+04  0.1118894082E+03    2    4
        11         1        11    5  0.0000000000E+00  0.7900611854E+04        86    1  0.5000000000E+00  0.1666666667E+00  0.1000000000E+01  0.2750000000E+04  0.8083333333E+04  0.3381924744E+03    1    6      1050    3  0.1000000000E+01  0.9843976701E+00  0.5637858704E+00  0.5000000000E+04  0.5492198835E+04  0.1127571741E+03    2    2
        12         1        12    5  0.0000000000E+00  0.8044935393E+04        86    1  0.8333333333E+00  0.1666666667E+00  0.1000000000E+01  0.2916666667E+04  0.8083333333E+04  0.3381924744E+03    1    6      1050    3  0.1000000000E+01  0.8922199021E+00  0.5686864314E+00  0.5000000000E+04  0.5446109951E+04  0.1137372863E+03    2    2
        13         1        13    5  0.0000000000E+00  0.8529533703E+04        86    1  0.1666666667E+00  0.5000000000E+00  0.1000000000E+01  0.2583333333E+04  0.8250000000E+04  0.3381924744E+03    1    6      1050    3  0.1000000000E+01  0.9748101236E+00  0.5113758983E+00  0.5000000000E+04  0.5487405062E+04  0.1022751797E+03    2    2
        14         1        14    5  0.0000000000E+00  0.8545296070E+04        86    1  0.5000000000E+00  0.5000000000E+00  0.1000000000E+01  0.2750000000E+04  0.8250000000E+04  0.3381924744E+03    1    6      1050    3  0.1000000000E+01  0.8963988244E+00  0.5221810192E+00  0.5000000000E+04  0.5448199412E+04  0.1044362038E+03    2    2
        15         1        15    5  0.0000000000E+00  0.9470905553E+04        86    1  0.8333333333E+00  0.5000000000E+00  0.1000000000E+01  0.2916666667E+04  0.8250000000E+04  0.3381924744E+03    1    6      1050    3  0.1000000000E+01  0.8034905577E+00  0.4995539370E+00  0.5000000000E+04  0.5401745279E+04  0.9991078741E+02    2    2
        16         1        16    5  0.0000000000E+00  0.9236288920E+04        86    1  0.1666666667E+00  0.8333333333E+00  0.1000000000E+01  0.2583333333E+04  0.8416666667E+04  0.3381924744E+03    1    6      1050    3  0.1000000000E+01  0.8786628083E+00  0.4702108389E+00  0.5000000000E+04  0.5439331404E+04  0.9404216779E+02    2    2
        17         1        17    5  0.0000000000E+00  0.1007132575E+05        86    1  0.5000000000E+00  0.8333333333E+00  0.1000000000E+01  0.2750000000E+04  0.8416666667E+04  0.3381924744E+03    1    6      1050    3  0.1000000000E+01  0.7985279318E+00  0.4541567971E+00  0.5000000000E+04  0.5399263966E+04  0.9083135942E+02    2    2
        18         1        18    5  0.0000000000E+00  0.1084194238E+05        86    1  0.8333333333E+00  0.8333333333E+00  0.1000000000E+01  0.2916666667E+04  0.8416666667E+04  0.3381924744E+03    1    6      1050    3  0.1000000000E+01  0.7024158690E+00  0.4370874993E+00  0.5000000000E+04  0.5351207935E+04  0.8741749987E+02    2    2
        19         1        19    5  0.0000000000E+00  0.9063514395E+04        87    1  0.1666666667E+00  0.1666666667E+00  0.1000000000E+01  0.3083333333E+04  0.8083333333E+04  0.3378265686E+03    1    6      1050    3  0.1000000000E+01  0.7938340519E+00  0.5400456100E+00  0.5000000000E+04  0.5396917026E+04  0.1080091220E+03    2    2
        20         1        20    5  0.0000000000E+00  0.1000438586E+05        87    1  0.5000000000E+00  0.1666666667E+00  0.1000000000E+01  0.3250000000E+04  0.8083333333E+04  0.3378265686E+03    1    6      1050    3  0.1000000000E+01  0.6768591290E+00  0.5064963389E+00  0.5000000000E+04  0.5338429564E+04  0.1012992678E+03    2    2
        21         1        21    5  0.0000000000E+00  0.1650706370E+05        87    1  0.8333333333E+00  0.1666666667E+00  0.1000000000E+01  0.3416666667E+04  0.8083333333E+04  0.3378265686E+03    1    6      1050    3  0.1000000000E+01  0.5332026968E+00  0.3659645289E+00  0.5000000000E+04  0.5266601348E+04  0.7319290578E+02    2    2
        22         1        22    5  0.0000000000E+00  0.1030878614E+05        87    1  0.1666666667E+00  0.5000000000E+00  0.1000000000E+01  0.3083333333E+04  0.8250000000E+04  0.3378265686E+03    1    6      1050    3  0.1000000000E+01  0.7021888763E+00  0.4780969748E+00  0.5000000000E+04  0.5351094438E+04  0.9561939496E+02    2    2
        23         1        23    5  0.0000000000E+00  0.1369400899E+05        87    1  0.5000000000E+00  0.5000000000E+00  0.1000000000E+01  0.3250000000E+04  0.8250000000E+04  0.3378265686E+03    1    6      1050    3  0.1000000000E+01  0.5760481472E+00  0.3951689379E+00  0.5000000000E+04  0.5288024074E+04  0.7903378758E+02    2    2
        24         1        24    2  0.0000000000E+00  0.2332488625E+05        87    1  0.8333333333E+00  0.5000000000E+00  0.1000000000E+01  0.3416666667E+04  0.8250000000E+04  0.3378265686E+03    1    6       200    1  0.8819751529E+00  0.3100268441E+00  0.1000000000E+01  0.9940987576E+04  0.5655013422E+04  0.3201781616E+03    1    6
        25         1        25    5  0.0000000000E+00  0.1367898912E+05        87    1  0.1666666667E+00  0.8333333333E+00  0.1000000000E+01  0.3083333333E+04  0.8416666667E+04  0.3378265686E+03    1    6      1050    3  0.1000000000E+01  0.5935299097E+00  0.3791379907E+00  0.5000000000E+04  0.5296764955E+04  0.7582759815E+02    2    2
        26         1        26    2  0.0000000000E+00  0.2607685295E+05        87    1  0.5000000000E+00  0.8333333333E+00  0.1000000000E+01  0.3250000000E+04  0.8416666667E+04  0.3378265686E+03    1    6       200    1  0.8959169474E+00  0.4999987908E-01  0.1000000000E+01  0.9947958474E+04  0.5524999940E+04  0.3201781616E+03    1    6
        27         1        27    2  0.0000000000E+00  0.2004420142E+05        87    1  0.8333333333E+00  0.8333333333E+00  0.1000000000E+01  0.3416666667E+04  0.8416666667E+04  0.3378265686E+03    1    6       180    1  0.8759065534E+00  0.1909209591E+00  0.1000000000E+01  0.9937953277E+04  0.6095460480E+04  0.3201782227E+03    1    6
        28         1        28    2  0.0000000000E+00  0.2036301274E+05        88    1  0.1666666667E+00  0.1666666667E+00  0.1000000000E+01  0.3583333333E+04  0.8083333333E+04  0.3373860474E+03    1    6       200    1  0.8679101540E+00  0.7681939230E+00  0.1000000000E+01  0.9933955077E+04  0.5884096961E+04  0.3201781616E+03    1    6
        29         1        29    2  0.0000000000E+00  0.1573049470E+05        88    1  0.5000000000E+00  0.1666666667E+00  0.1000000000E+01  0.3750000000E+04  0.8083333333E+04  0.3373860474E+03    1    6       160    1  0.8510926739E+00  0.7915299772E-01  0.1000000000E+01  0.9925546337E+04  0.6539576499E+04  0.3201783142E+03    1    6
        30         1        30    2  0.0000000000E+00  0.1388808407E+05        88    1  0.8333333333E+00  0.1666666667E+00  0.1000000000E+01  0.3916666667E+04  0.8083333333E+04  0.3373860474E+03    1    6       140    1  0.8335773502E+00  0.3611133094E+00  0.1000000000E+01  0.9916788675E+04  0.7180556655E+04  0.3201784363E+03    1    6
        31         1        31    2  0.0000000000E+00  0.1830296022E+05        88    1  0.1666666667E+00  0.5000000000E+00  0.1000000000E+01  0.3583333333E+04  0.8250000000E+04  0.3373860474E+03    1    6       180    1  0.8638863605E+00  0.5462737483E+00  0.1000000000E+01  0.9931943180E+04  0.6273136874E+04  0.3201782227E+03    1    6
        32         1        32    2  0.0000000000E+00  0.1492839453E+05        88    1  0.5000000000E+00  0.5000000000E+00  0.1000000000E+01  0.3750000000E+04  0.8250000000E+04  0.3373860474E+03    1    6       160    1  0.8496556011E+00  0.6993293234E+00  0.1000000000E+01  0.9924827801E+04  0.6849664662E+04  0.3201783142E+03    1    6
        33         1        33    2  0.0000000000E+00  0.1351234838E+05        88    1  0.8333333333E+00  0.5000000000E+00  0.1000000000E+01  0.3916666667E+04  0.8250000000E+04  0.3373860474E+03    1    6       140    1  0.8331618899E+00  0.8616093257E+00  0.1000000000E+01  0.9916580945E+04  0.7430804663E+04  0.3201784363E+03    1    6
        34         1        34    2  0.0000000000E+00  0.1711767961E+05        88    1  0.1666666667E+00  0.8333333333E+00  0.1000000000E+01  0.3583333333E+04  0.8416666667E+04  0.3373860474E+03    1    6       160    1  0.8630355498E+00  0.2668426732E+00  0.1000000000E+01  0.9931517775E+04  0.6633421337E+04  0.3201783142E+03    1    6
        35         1        35    2  0.0000000000E+00  0.1439227965E+05        88    1  0.5000000000E+00  0.8333333333E+00  0.1000000000E+01  0.3750000000E+04  0.8416666667E+04  0.3373860474E+03    1    6       140    1  0.8493325479E+00  0.2843599546E+00  0.1000000000E+01  0.9924666274E+04  0.7142179977E+04  0.3201784363E+03    1    6
        36         1        36    2  0.0000000000E+00  0.1328624382E+05        88    1  0.8333333333E+00  0.8333333333E+00  0.1000000000E+01  0.3916666667E+04  0.8416666667E+04  0.3373860474E+03    1    6       120    1  0.8327484872E+00  0.3286003697E+00  0.1000000000E+01  0.9916374244E+04  0.7664300185E+04  0.3201785583E+03    1    6
        37         1        37    2  0.0000000000E+00  0.5123147571E+04        89    1  0.1666666667E+00  0.1666666667E+00  0.1000000000E+01  0.4083333333E+04  0.8083333333E+04  0.3368634949E+03    1    6       100    1  0.8112882833E+00  0.4922104727E-01  0.1000000000E+01  0.9905644142E+04  0.8024610524E+04  0.3201786804E+03    1    6
        38         1        38    2  0.0000000000E+00  0.4801869071E+04        89    1  0.5000000000E+00  0.1666666667E+00  0.1000000000E+01  0.4250000000E+04  0.8083333333E+04  0.3368634949E+03    1    6       100    1  0.7866325750E+00  0.5847444066E-01  0.1000000000E+01  0.9893316288E+04  0.8029237220E+04  0.3201786804E+03    1    6
        39         1        39    2  0.0000000000E+00  0.4498057873E+04        89    1  0.8333333333E+00  0.1666666667E+00  0.1000000000E+01  0.4416666667E+04  0.8083333333E+04  0.3368634949E+03    1    6       100    1  0.7619413247E+00  0.6724501578E-01  0.1000000000E+01  0.9880970662E+04  0.8033622508E+04  0.3201786804E+03    1    6
        40         1        40    2  0.0000000000E+00  0.5123147571E+04        89    1  0.1666666667E+00  0.5000000000E+00  0.1000000000E+01  0.4083333333E+04  0.8250000000E+04  0.3368634949E+03    1    6       100    1  0.8112882833E+00  0.3884923399E+00  0.1000000000E+01  0.9905644142E+04  0.8194246170E+04  0.3201786804E+03    1    6
        41         1        41    2  0.0000000000E+00  0.4801869071E+04        89    1  0.5000000000E+00  0.5000000000E+00  0.1000000000E+01  0.4250000000E+04  0.8250000000E+04  0.3368634949E+03    1    6       100    1  0.7866325750E+00  0.3972480866E+00  0.1000000000E+01  0.9893316288E+04  0.8198624043E+04  0.3201786804E+03    1    6
        42         1        42    2  0.0000000000E+00  0.4498057873E+04        89    1  0.8333333333E+00  0.5000000000E+00  0.1000000000E+01  0.4416666667E+04  0.8250000000E+04  0.3368634949E+03    1    6       100    1  0.7619413247E+00  0.4055469757E+00  0.1000000000E+01  0.9880970662E+04  0.8202773488E+04  0.3201786804E+03    1    6
        43         1        43    2  0.0000000000E+00  0.5123147571E+04        89    1  0.1666666667E+00  0.8333333333E+00  0.1000000000E+01  0.4083333333E+04  0.8416666667E+04  0.3368634949E+03    1    6       100    1  0.8112882833E+00  0.7277636326E+00  0.1000000000E+01  0.9905644142E+04  0.8363881816E+04  0.3201786804E+03    1    6
        44         1        44    2  0.0000000000E+00  0.4801869071E+04        89    1  0.5000000000E+00  0.8333333333E+00  0.1000000000E+01  0.4250000000E+04  0.8416666667E+04  0.3368634949E+03    1    6       100    1  0.7866325750E+00  0.7360217325E+00  0.1000000000E+01  0.9893316288E+04  0.8368010866E+04  0.3201786804E+03    1    6
        45         1        45    2  0.0000000000E+00  0.4498057873E+04        89    1  0.8333333333E+00  0.8333333333E+00  0.1000000000E+01  0.4416666667E+04  0.8416666667E+04  0.3368634949E+03    1    6       100    1  0.7619413247E+00  0.7438489357E+00  0.1000000000E+01  0.9880970662E+04  0.8371924468E+04  0.3201786804E+03    1    6
        46         1        46    5  0.0000000000E+00  0.6554386048E+04       105    1  0.1666666667E+00  0.1666666667E+00  0.1000000000E+01  0.2083333333E+04  0.7583333333E+04  0.3384794922E+03    1    6      1050    3  0.5532162816E+00  0.1000000000E+01  0.6135881613E+00  0.4776608141E+04  0.5500000000E+04  0.1227176323E+03    2    4
        47         1        47    5  0.0000000000E+00  0.6352594519E+04       105    1  0.5000000000E+00  0.1666666667E+00  0.1000000000E+01  0.2250000000E+04  0.7583333333E+04  0.3384794922E+03    1    6      1050    3  0.6082382932E+00  0.1000000000E+01  0.6424972615E+00  0.4804119147E+04  0.5500000000E+04  0.1284994523E+03    2    4
        48         1        48    5  0.0000000000E+00  0.6145074463E+04       105    1  0.8333333333E+00  0.1666666667E+00  0.1000000000E+01  0.2416666667E+04  0.7583333333E+04  0.3384794922E+03    1    6      1050    3  0.6651244743E+00  0.1000000000E+01  0.6707319166E+00  0.4832562237E+04  0.5500000000E+04  0.1341463833E+03    2    4
        49         1        49    5  0.0000000000E+00  0.6917723135E+04       105    1  0.1666666667E+00  0.5000000000E+00  0.1000000000E+01  0.2083333333E+04  0.7750000000E+04  0.3384794922E+03    1    6      1050    3  0.6221620641E+00  0.1000000000E+01  0.5823824953E+00  0.4811081032E+04  0.5500000000E+04  0.1164764991E+03    2    4
        50         1        50    5  0.0000000000E+00  0.6713539488E+04       105    1  0.5000000000E+00  0.5000000000E+00  0.1000000000E+01  0.2250000000E+04  0.7750000000E+04  0.3384794922E+03    1    6      1050    3  0.6768370908E+00  0.1000000000E+01  0.6108670280E+00  0.4838418545E+04  0.5500000000E+04  0.1221734056E+03    2    4
        51         1        51    5  0.0000000000E+00  0.6512153085E+04       105    1  0.8333333333E+00  0.5000000000E+00  0.1000000000E+01  0.2416666667E+04  0.7750000000E+04  0.3384794922E+03    1    6      1050    3  0.7331063286E+00  0.1000000000E+01  0.6376652315E+00  0.4866553164E+04  0.5500000000E+04  0.1275330463E+03    2    4
        52         1        52    5  0.0000000000E+00  0.7302583487E+04       105    1  0.1666666667E+00  0.8333333333E+00  0.1000000000E+01  0.2083333333E+04  0.7916666667E+04  0.3384794922E+03    1    6      1050    3  0.6948485045E+00  0.1000000000E+01  0.5519980474E+00  0.4847424252E+04  0.5500000000E+04  0.1103996095E+03    2    4
        53         1        53    5  0.0000000000E+00  0.7109751372E+04       105    1  0.5000000000E+00  0.8333333333E+00  0.1000000000E+01  0.2250000000E+04  0.7916666667E+04  0.3384794922E+03    1    6      1050    3  0.7491091551E+00  0.1000000000E+01  0.5784443897E+00  0.4874554578E+04  0.5500000000E+04  0.1156888779E+03    2    4
        54         1        54    5  0.0000000000E+00  0.6928501221E+04       105    1  0.8333333333E+00  0.8333333333E+00  0.1000000000E+01  0.2416666667E+04  0.7916666667E+04  0.3384794922E+03    1    6      1050    3  0.8048507207E+00  0.1000000000E+01  0.6024110445E+00  0.4902425360E+04  0.5500000000E+04  0.1204822089E+03    2    4
        55         1        55    5  0.0000000000E+00  0.6038014826E+04       106    1  0.1666666667E+00  0.1666666667E+00  0.1000000000E+01  0.2583333333E+04  0.7583333333E+04  0.3381809692E+03    1    6      1050    3  0.7327286891E+00  0.1000000000E+01  0.6929949969E+00  0.4866364345E+04  0.5500000000E+04  0.1385989994E+03    2    4
        56         1        56    5  0.0000000000E+00  0.5932401693E+04       106    1  0.5000000000E+00  0.1666666667E+00  0.1000000000E+01  0.2750000000E+04  0.7583333333E+04  0.3381809692E+03    1    6      1050    3  0.8028815462E+00  0.1000000000E+01  0.7119763482E+00  0.4901440773E+04  0.5500000000E+04  0.1423952696E+03    2    4
        57         1        57    5  0.0000000000E+00  0.6198318968E+04       106    1  0.8333333333E+00  0.1666666667E+00  0.1000000000E+01  0.2916666667E+04  0.7583333333E+04  0.3381809692E+03    1    6      1050    3  0.8876452917E+00  0.1000000000E+01  0.7063102209E+00  0.4943822646E+04  0.5500000000E+04  0.1412620442E+03    2    4
        58         1        58    5  0.0000000000E+00  0.6423966843E+04       106    1  0.1666666667E+00  0.5000000000E+00  0.1000000000E+01  0.2583333333E+04  0.7750000000E+04  0.3381809692E+03    1    6      1050    3  0.7992825919E+00  0.1000000000E+01  0.6573499694E+00  0.4899641296E+04  0.5500000000E+04  0.1314699939E+03    2    4
        59         1        59    5  0.0000000000E+00  0.6453994227E+04       106    1  0.5000000000E+00  0.5000000000E+00  0.1000000000E+01  0.2750000000E+04  0.7750000000E+04  0.3381809692E+03    1    6      1050    3  0.8679013968E+00  0.1000000000E+01  0.6670066059E+00  0.4933950698E+04  0.5500000000E+04  0.1334013212E+03    2    4
        60         1        60    5  0.0000000000E+00  0.6811056145E+04       106    1  0.8333333333E+00  0.5000000000E+00  0.1000000000E+01  0.2916666667E+04  0.7750000000E+04  0.3381809692E+03    1    6      1050    3  0.9517084031E+00  0.1000000000E+01  0.6567027890E+00  0.4975854202E+04  0.5500000000E+04  0.1313405578E+03    2    4
        61         1        61    5  0.0000000000E+00  0.6990142377E+04       106    1  0.1666666667E+00  0.8333333333E+00  0.1000000000E+01  0.2583333333E+04  0.7916666667E+04  0.3381809692E+03    1    6      1050    3  0.8697077409E+00  0.1000000000E+01  0.6124632911E+00  0.4934853870E+04  0.5500000000E+04  0.1224926582E+03    2    4
        62         1        62    5  0.0000000000E+00  0.7173940765E+04       106    1  0.5000000000E+00  0.8333333333E+00  0.1000000000E+01  0.2750000000E+04  0.7916666667E+04  0.3381809692E+03    1    6      1050    3  0.9383981285E+00  0.1000000000E+01  0.6133088586E+00  0.4969199064E+04  0.5500000000E+04  0.1226617717E+03    2    4
        63         1        63    5  0.0000000000E+00  0.7436715755E+04       106    1  0.8333333333E+00  0.8333333333E+00  0.1000000000E+01  0.2916666667E+04  0.7916666667E+04  0.3381809692E+03    1    6      1050    3  0.1000000000E+01  0.9763133658E+00  0.6097601082E+00  0.5000000000E+04  0.5488156683E+04  0.1219520216E+03    2    2
        64         1        64    5  0.0000000000E+00  0.6559353092E+04       107    1  0.1666666667E+00  0.1666666667E+00  0.1000000000E+01  0.3083333333E+04  0.7583333333E+04  0.3378135376E+03    1    6      1050    3  0.9783683740E+00  0.1000000000E+01  0.6947792020E+00  0.4989184187E+04  0.5500000000E+04  0.1389558404E+03    2    4
        65         1        65    5  0.0000000000E+00  0.6784661808E+04       107    1  0.5000000000E+00  0.1666666667E+00  0.1000000000E+01  0.3250000000E+04  0.7583333333E+04  0.3378135376E+03    1    6      1050    3  0.1000000000E+01  0.9041793251E+00  0.6869624394E+00  0.5000000000E+04  0.5452089663E+04  0.1373924879E+03    2    2
        66         1        66    5  0.0000000000E+00  0.7998072721E+04       107    1  0.8333333333E+00  0.1666666667E+00  0.1000000000E+01  0.3416666667E+04  0.7583333333E+04  0.3378135376E+03    1    6      1050    3  0.1000000000E+01  0.7752640408E+00  0.6381783073E+00  0.5000000000E+04  0.5387632020E+04  0.1276356615E+03    2    2
        67         1        67    5  0.0000000000E+00  0.7082083267E+04       107    1  0.1666666667E+00  0.5000000000E+00  0.1000000000E+01  0.3083333333E+04  0.7750000000E+04  0.3378135376E+03    1    6      1050    3  0.1000000000E+01  0.9536810023E+00  0.6528499661E+00  0.5000000000E+04  0.5476840501E+04  0.1305699932E+03    2    2
        68         1        68    5  0.0000000000E+00  0.7811940694E+04       107    1  0.5000000000E+00  0.5000000000E+00  0.1000000000E+01  0.3250000000E+04  0.7750000000E+04  0.3378135376E+03    1    6      1050    3  0.1000000000E+01  0.8369638781E+00  0.6246429787E+00  0.5000000000E+04  0.5418481939E+04  0.1249285957E+03    2    2
        69         1        69    5  0.0000000000E+00  0.8920600286E+04       107    1  0.8333333333E+00  0.5000000000E+00  0.1000000000E+01  0.3416666667E+04  0.7750000000E+04  0.3378135376E+03    1    6      1050    3  0.1000000000E+01  0.7079563309E+00  0.5826630010E+00  0.5000000000E+04  0.5353978165E+04  0.1165326002E+03    2    2
        70         1        70    5  0.0000000000E+00  0.7611949752E+04       107    1  0.1666666667E+00  0.8333333333E+00  0.1000000000E+01  0.3083333333E+04  0.7916666667E+04  0.3378135376E+03    1    6      1050    3  0.1000000000E+01  0.8782431237E+00  0.6130255599E+00  0.5000000000E+04  0.5439121562E+04  0.1226051120E+03    2    2
        71         1        71    5  0.0000000000E+00  0.8806679346E+04       107    1  0.5000000000E+00  0.8333333333E+00  0.1000000000E+01  0.3250000000E+04  0.7916666667E+04  0.3378135376E+03    1    6      1050    3  0.1000000000E+01  0.7624779584E+00  0.5685416854E+00  0.5000000000E+04  0.5381238979E+04  0.1137083371E+03    2    2
        72         1        72    5  0.0000000000E+00  0.1113380416E+05       107    1  0.8333333333E+00  0.8333333333E+00  0.1000000000E+01  0.3416666667E+04  0.7916666667E+04  0.3378135376E+03    1    6      1050    3  0.1000000000E+01  0.6322974786E+00  0.4999490558E+00  0.5000000000E+04  0.5316148739E+04  0.9998981116E+02    2    2
        73         1        73    5  0.0000000000E+00  0.1050603285E+05       108    1  0.1666666667E+00  0.1666666667E+00  0.1000000000E+01  0.3583333333E+04  0.7583333333E+04  0.3373715820E+03    1    6      1050    3  0.1000000000E+01  0.6297416573E+00  0.5536505783E+00  0.5000000000E+04  0.5314870829E+04  0.1107301157E+03    2    2
        74         1        74    2  0.0000000000E+00  0.2203054740E+05       108    1  0.5000000000E+00  0.1666666667E+00  0.1000000000E+01  0.3750000000E+04  0.7583333333E+04  0.3373715820E+03    1    6       200    1  0.8658484155E+00  0.1168511854E+00  0.1000000000E+01  0.9932924208E+04  0.5558425593E+04  0.3201781616E+03    1    6
        75         1        75    2  0.0000000000E+00  0.1500325934E+05       108    1  0.8333333333E+00  0.1666666667E+00  0.1000000000E+01  0.3916666667E+04  0.7583333333E+04  0.3373715820E+03    1    6       180    1  0.8369001396E+00  0.8006544773E+00  0.1000000000E+01  0.9918450070E+04  0.6400327239E+04  0.3201782227E+03    1    6
        76         1        76    5  0.0000000000E+00  0.1313845945E+05       108    1  0.1666666667E+00  0.5000000000E+00  0.1000000000E+01  0.3583333333E+04  0.7750000000E+04  0.3373715820E+03    1    6      1050    3  0.1000000000E+01  0.5546736477E+00  0.4532598495E+00  0.5000000000E+04  0.5277336824E+04  0.9065196989E+02    2    2
        77         1        77    2  0.0000000000E+00  0.1854316450E+05       108    1  0.5000000000E+00  0.5000000000E+00  0.1000000000E+01  0.3750000000E+04  0.7750000000E+04  0.3373715820E+03    1    6       200    1  0.8562523706E+00  0.7937788413E+00  0.1000000000E+01  0.9928126185E+04  0.5896889421E+04  0.3201781616E+03    1    6
        78         1        78    2  0.0000000000E+00  0.1424252813E+05       108    1  0.8333333333E+00  0.5000000000E+00  0.1000000000E+01  0.3916666667E+04  0.7750000000E+04  0.3373715820E+03    1    6       160    1  0.8354815903E+00  0.3219127231E+00  0.1000000000E+01  0.9917740795E+04  0.6660956362E+04  0.3201783142E+03    1    6
        79         1        79    2  0.0000000000E+00  0.2511553811E+05       108    1  0.1666666667E+00  0.8333333333E+00  0.1000000000E+01  0.3583333333E+04  0.7916666667E+04  0.3373715820E+03    1    6       220    1  0.8818634265E+00  0.9269740100E+00  0.1000000000E+01  0.9940931713E+04  0.5463487005E+04  0.3201781311E+03    1    6
        80         1        80    2  0.0000000000E+00  0.1692915963E+05       108    1  0.5000000000E+00  0.8333333333E+00  0.1000000000E+01  0.3750000000E+04  0.7916666667E+04  0.3373715820E+03    1    6       180    1  0.8526452014E+00  0.4179707825E+00  0.1000000000E+01  0.9926322601E+04  0.6208985391E+04  0.3201782227E+03    1    6
        81         1        81    2  0.0000000000E+00  0.1374229381E+05       108    1  0.8333333333E+00  0.8333333333E+00  0.1000000000E+01  0.3916666667E+04  0.7916666667E+04  0.3373715820E+03    1    6       160    1  0.8350552837E+00  0.8088416797E+00  0.1000000000E+01  0.9917527642E+04  0.6904420840E+04  0.3201783142E+03    1    6
        82         1        82    2  0.0000000000E+00  0.5128516132E+04       109    1  0.1666666667E+00  0.1666666667E+00  0.1000000000E+01  0.4083333333E+04  0.7583333333E+04  0.3368479919E+03    1    6       120    1  0.8135511066E+00  0.3699626428E-01  0.1000000000E+01  0.9906775553E+04  0.7518498132E+04  0.3201785583E+03    1    6
        83         1        83    2  0.0000000000E+00  0.4807311416E+04       109    1  0.5000000000E+00  0.1666666667E+00  0.1000000000E+01  0.4250000000E+04  0.7583333333E+04  0.3368479919E+03    1    6       120    1  0.7887289578E+00  0.4732113086E-01  0.1000000000E+01  0.9894364479E+04  0.7523660565E+04  0.3201785583E+03    1    6
        84         1        84    2  0.0000000000E+00  0.4503504555E+04       109    1  0.8333333333E+00  0.1666666667E+00  0.1000000000E+01  0.4416666667E+04  0.7583333333E+04  0.3368479919E+03    1    6       120    1  0.7638808974E+00  0.5711561666E-01  0.1000000000E+01  0.9881940449E+04  0.7528557808E+04  0.3201785583E+03    1    6
        85         1        85    2  0.0000000000E+00  0.5128516132E+04       109    1  0.1666666667E+00  0.5000000000E+00  0.1000000000E+01  0.4083333333E+04  0.7750000000E+04  0.3368479919E+03    1    6       120    1  0.8135511066E+00  0.3741683758E+00  0.1000000000E+01  0.9906775553E+04  0.7687084188E+04  0.3201785583E+03    1    6
        86         1        86    2  0.0000000000E+00  0.4807311416E+04       109    1  0.5000000000E+00  0.5000000000E+00  0.1000000000E+01  0.4250000000E+04  0.7750000000E+04  0.3368479919E+03    1    6       120    1  0.7887289578E+00  0.3841363938E+00  0.1000000000E+01  0.9894364479E+04  0.7692068197E+04  0.3201785583E+03    1    6
        87         1        87    2  0.0000000000E+00  0.4503504555E+04       109    1  0.8333333333E+00  0.5000000000E+00  0.1000000000E+01  0.4416666667E+04  0.7750000000E+04  0.3368479919E+03    1    6       120    1  0.7638808974E+00  0.3935923527E+00  0.1000000000E+01  0.9881940449E+04  0.7696796176E+04  0.3201785583E+03    1    6