MODPATH_TIMESERIES_FILE         7         0
    1   0.0000000000E+00
END HEADER
       0       1  0.0000000000E+00         1    1         1         3  0.5000000000E+00  0.5000000000E+00  0.1000000000E+01  0.1250000000E+04  0.1025000000E+05  0.3389134216E+03         1
       0       1  0.0000000000E+00         2    1         2        23  0.5000000000E+00  0.5000000000E+00  0.1000000000E+01  0.1250000000E+04  0.9750000000E+04  0.3389111938E+03         1
       0       1  0.0000000000E+00         3    1         3        43  0.5000000000E+00  0.5000000000E+00  0.1000000000E+01  0.1250000000E+04  0.9250000000E+04  0.3389070435E+03         1
       0       1  0.0000000000E+00         4    1         4        63  0.5000000000E+00  0.5000000000E+00  0.1000000000E+01  0.1250000000E+04  0.8750000000E+04  0.3389011841E+03         1
       0       1  0.0000000000E+00         5    1         5        83  0.5000000000E+00  0.5000000000E+00  0.1000000000E+01  0.1250000000E+04  0.8250000000E+04  0.3388940430E+03         1
       0       1  0.0000000000E+00         6    1         6       103  0.5000000000E+00  0.5000000000E+00  0.1000000000E+01  0.1250000000E+04  0.7750000000E+04  0.3388862000E+03         1
       0       1  0.0000000000E+00         7    1         7       123  0.5000000000E+00  0.5000000000E+00  0.1000000000E+01  0.1250000000E+04  0.7250000000E+04  0.3388782349E+03         1
       0       1  0.0000000000E+00         8    1         8       143  0.5000000000E+00  0.5000000000E+00  0.1000000000E+01  0.1250000000E+04  0.6750000000E+04  0.3388709717E+03         1
       0       1  0.0000000000E+00         9    1         9       163  0.5000000000E+00  0.5000000000E+00  0.1000000000E+01  0.1250000000E+04  0.6250000000E+04  0.3388650818E+03         1
       0       1  0.0000000000E+00        10    1        10       183  0.5000000000E+00  0.5000000000E+00  0.1000000000E+01  0.1250000000E+04  0.5750000000E+04  0.3388612366E+03         1
       0       1  0.0000000000E+00        11    1        11       203  0.5000000000E+00  0.5000000000E+00  0.1000000000E+01  0.1250000000E+04  0.5250000000E+04  0.3388598938E+03         1
       0       1  0.0000000000E+00        12    1        12       223  0.5000000000E+00  0.5000000000E+00  0.1000000000E+01  0.1250000000E+04  0.4750000000E+04  0.3388612671E+03         1
       0       1  0.0000000000E+00        13    1        13       243  0.5000000000E+00  0.5000000000E+00  0.1000000000E+01  0.1250000000E+04  0.4250000000E+04  0.3388651428E+03         1
       0       1  0.0000000000E+00        14    1        14       263  0.5000000000E+00  0.5000000000E+00  0.1000000000E+01  0.1250000000E+04  0.3750000000E+04  0.3388710938E+03         1
       0       1  0.0000000000E+00        15    1        15       283  0.5000000000E+00  0.5000000000E+00  0.1000000000E+01  0.1250000000E+04  0.3250000000E+04  0.3388784180E+03         1
       0       1  0.0000000000E+00        16    1        16       303  0.5000000000E+00  0.5000000000E+00  0.1000000000E+01  0.1250000000E+04  0.2750000000E+04  0.3388864136E+03         1
       0       1  0.0000000000E+00        17    1        17       323  0.5000000000E+00  0.5000000000E+00  0.1000000000E+01  0.1250000000E+04  0.2250000000E+04  0.3388943176E+03         1
       0       1  0.0000000000E+00        18    1        18       343  0.5000000000E+00  0.5000000000E+00  0.1000000000E+01  0.1250000000E+04  0.1750000000E+04  0.3389014893E+03         1
       0       1  0.0000000000E+00        19    1        19       363  0.5000000000E+00  0.5000000000E+00  0.1000000000E+01  0.1250000000E+04  0.1250000000E+04  0.3389073486E+03         1
       0       1  0.0000000000E+00        20    1        20       383  0.5000000000E+00  0.5000000000E+00  0.1000000000E+01  0.1250000000E+04  0.7500000000E+03  0.3389115295E+03         1
       0       1  0.0000000000E+00        21    1        21       403  0.5000000000E+00  0.5000000000E+00  0.1000000000E+01  0.1250000000E+04  0.2500000000E+03  0.3389136963E+03         1
       1       1  0.1000000000E+04         1    1         1         3  0.7982683729E+00  0.4977860730E+00  0.6037386225E+00  0.1399134186E+04  0.1024889304E+05  0.2917926254E+03         1
       1       1  0.1000000000E+04         2    1         2        23  0.7987086094E+00  0.4936143778E+00  0.6036997946E+00  0.1399354305E+04  0.9746807189E+04  0.2917866633E+03         1
       1       1  0.1000000000E+04         3    1         3        43  0.7995036418E+00  0.4899617140E+00  0.6036223449E+00  0.1399751821E+04  0.9244980857E+04  0.2917749484E+03         1
       1       1  0.1000000000E+04         4    1         4        63  0.8006622507E+00  0.4869917728E+00  0.6035095263E+00  0.1400331125E+04  0.8743495886E+04  0.2917579973E+03         1
       1       1  0.1000000000E+04         5    1         5        83  0.8021700309E+00  0.4849900301E+00  0.6033669346E+00  0.1401085015E+04  0.8242495015E+04  0.2917367342E+03         1
       1       1  0.1000000000E+04         6    1         6       103  0.8039761775E+00  0.4841953596E+00  0.6032031029E+00  0.1401988089E+04  0.7742097680E+04  0.2917125247E+03         1
       1       1  0.1000000000E+04         7    1         7       123  0.8059759693E+00  0.4847856426E+00  0.6030297338E+00  0.1402987985E+04  0.7242392821E+04  0.2916871103E+03         1
       1       1  0.1000000000E+04         8    1         8       143  0.8079928628E+00  0.4868392679E+00  0.6028629077E+00  0.1403996431E+04  0.6743419634E+04  0.2916628996E+03         1
       1       1  0.1000000000E+04         9    1         9       163  0.8097755291E+00  0.4902829888E+00  0.6027215139E+00  0.1404887765E+04  0.6245141494E+04  0.2916425420E+03         1
       1       1  0.1000000000E+04        10    1        10       183  0.8110262730E+00  0.4948438592E+00  0.6026256457E+00  0.1405513137E+04  0.5747421930E+04  0.2916288294E+03         1
       1       1  0.1000000000E+04        11    1        11       203  0.8114819918E+00  0.5000380948E+00  0.6025916064E+00  0.1405740996E+04  0.5250019047E+04  0.2916239743E+03         1
       1       1  0.1000000000E+04        12    1        12       223  0.8110304203E+00  0.5052359710E+00  0.6026261023E+00  0.1405515210E+04  0.4752617986E+04  0.2916289021E+03         1
       1       1  0.1000000000E+04        13    1        13       243  0.8097810663E+00  0.5098057617E+00  0.6027223786E+00  0.1404890533E+04  0.4254902881E+04  0.2916426816E+03         1
       1       1  0.1000000000E+04        14    1        14       263  0.8079958612E+00  0.5132584572E+00  0.6028641962E+00  0.1403997931E+04  0.3756629229E+04  0.2916631264E+03         1
       1       1  0.1000000000E+04        15    1        15       283  0.8059726413E+00  0.5153148009E+00  0.6030314094E+00  0.1402986321E+04  0.3257657400E+04  0.2916874199E+03         1
       1       1  0.1000000000E+04        16    1        16       303  0.8039648136E+00  0.5158968442E+00  0.6032051609E+00  0.1401982407E+04  0.2757948422E+04  0.2917128982E+03         1
       1       1  0.1000000000E+04        17    1        17       323  0.8021513632E+00  0.5150823271E+00  0.6033696900E+00  0.1401075682E+04  0.2257541164E+04  0.2917372276E+03         1
       1       1  0.1000000000E+04        18    1        18       343  0.8006405283E+00  0.5130531983E+00  0.6035132497E+00  0.1400320264E+04  0.1756526599E+04  0.2917586242E+03         1
       1       1  0.1000000000E+04        19    1        19       363  0.7994874237E+00  0.5100526163E+00  0.6036273627E+00  0.1399743712E+04  0.1255026308E+04  0.2917757293E+03         1
       1       1  0.1000000000E+04        20    1        20       383  0.7987120948E+00  0.5063571332E+00  0.6037065574E+00  0.1399356047E+04  0.7531785666E+03  0.2917876701E+03         1
       1       1  0.1000000000E+04        21    1        21       403  0.7983164964E+00  0.5021860263E+00  0.6037468153E+00  0.1399158248E+04  0.2510930132E+03  0.2917937654E+03         1
       2       1  0.2000000000E+04         1    1         1         4  0.1333738388E+00  0.4954733998E+00  0.2533172452E+00  0.1566686919E+04  0.1024773670E+05  0.2500798304E+03         1
       2       1  0.2000000000E+04         2    1         2        24  0.1343513432E+00  0.4869509494E+00  0.2531852477E+00  0.1567175672E+04  0.9743475475E+04  0.2500635461E+03         1
       2       1  0.2000000000E+04         3    1         3        44  0.1361276128E+00  0.4794828880E+00  0.2529174725E+00  0.1568063806E+04  0.9239741444E+04  0.2500305846E+03         1
       2       1  0.2000000000E+04         4    1         4        64  0.1387209805E+00  0.4733862491E+00  0.2525233091E+00  0.1569360490E+04  0.8736693125E+04  0.2499821492E+03         1
       2       1  0.2000000000E+04         5    1         5        84  0.1421019182E+00  0.4692430332E+00  0.2520184840E+00  0.1571050959E+04  0.8234621517E+04  0.2499202116E+03         1
       2       1  0.2000000000E+04         6    1         6       104  0.1461613166E+00  0.4675481855E+00  0.2514284789E+00  0.1573080658E+04  0.7733774093E+04  0.2498479473E+03         1
       2       1  0.2000000000E+04         7    1         7       124  0.1506689745E+00  0.4686827262E+00  0.2507915891E+00  0.1575334487E+04  0.7234341363E+04  0.2497700821E+03         1
       2       1  0.2000000000E+04         8    1         8       144  0.1552307207E+00  0.4728354983E+00  0.2501638157E+00  0.1577615360E+04  0.6736417749E+04  0.2496934708E+03         1
       2       1  0.2000000000E+04         9    1         9       164  0.1592773110E+00  0.4798895949E+00  0.2496183486E+00  0.1579638655E+04  0.6239944797E+04  0.2496270120E+03         1
       2       1  0.2000000000E+04        10    1        10       184  0.1621255202E+00  0.4893057459E+00  0.2492398507E+00  0.1581062760E+04  0.5744652873E+04  0.2495809626E+03         1
       2       1  0.2000000000E+04        11    1        11       204  0.1631640034E+00  0.5000761834E+00  0.2491032727E+00  0.1581582002E+04  0.5250038092E+04  0.2495643576E+03         1
       2       1  0.2000000000E+04        12    1        12       224  0.1621296002E+00  0.5108542146E+00  0.2492413347E+00  0.1581064800E+04  0.4755427107E+04  0.2495811464E+03         1
       2       1  0.2000000000E+04        13    1        13       244  0.1592805105E+00  0.5202889664E+00  0.2496211356E+00  0.1579640255E+04  0.4260144483E+04  0.2496273656E+03         1
       2       1  0.2000000000E+04        14    1        14       264  0.1552264893E+00  0.5273618442E+00  0.2501676825E+00  0.1577613245E+04  0.3763680922E+04  0.2496939603E+03         1
       2       1  0.2000000000E+04        15    1        15       284  0.1506512207E+00  0.5315205769E+00  0.2507964442E+00  0.1575325610E+04  0.3265760288E+04  0.2497707044E+03         1
       2       1  0.2000000000E+04        16    1        16       304  0.1461280721E+00  0.5326385498E+00  0.2514345296E+00  0.1573064036E+04  0.2766319275E+04  0.2498487270E+03         1
       2       1  0.2000000000E+04        17    1        17       324  0.1420556099E+00  0.5309030346E+00  0.2520267775E+00  0.1571027805E+04  0.2265451517E+04  0.2499212731E+03         1
       2       1  0.2000000000E+04        18    1        18       344  0.1386705807E+00  0.5267028134E+00  0.2525351746E+00  0.1569335290E+04  0.1763351407E+04  0.2499836428E+03         1
       2       1  0.2000000000E+04        19    1        19       364  0.1360909504E+00  0.5205409492E+00  0.2529345535E+00  0.1568045475E+04  0.1260270475E+04  0.2500326977E+03         1
       2       1  0.2000000000E+04        20    1        20       384  0.1343576534E+00  0.5129808382E+00  0.2532093423E+00  0.1567178827E+04  0.7564904191E+03  0.2500664844E+03         1
       2       1  0.2000000000E+04        21    1        21       404  0.1334734409E+00  0.5044627972E+00  0.2533481514E+00  0.1566736720E+04  0.2522313986E+03  0.2500835699E+03         1
       3       1  0.3000000000E+04         1    1         1       424  0.4370596899E+00  0.4934690975E+00  0.6708886582E+00  0.1718529845E+04  0.1024673455E+05  0.2134177732E+03         2
       3       1  0.3000000000E+04         2    1         2       444  0.4382122010E+00  0.4811926100E+00  0.6691838394E+00  0.1719106101E+04  0.9740596305E+04  0.2133836768E+03         2
       3       1  0.3000000000E+04         3    1         3       464  0.4402451821E+00  0.4704482561E+00  0.6656542137E+00  0.1720122591E+04  0.9235224128E+04  0.2133130843E+03         2
       3       1  0.3000000000E+04         4    1         4       484  0.4432043211E+00  0.4616731518E+00  0.6604376937E+00  0.1721602161E+04  0.8730836576E+04  0.2132087539E+03         2
       3       1  0.3000000000E+04         5    1         5       504  0.4470798083E+00  0.4557057519E+00  0.6537105766E+00  0.1723539904E+04  0.8227852876E+04  0.2130742115E+03         2
       3       1  0.3000000000E+04         6    1         6       524  0.4517671860E+00  0.4532595378E+00  0.6457771607E+00  0.1725883593E+04  0.7726629769E+04  0.2129155432E+03         2
       3       1  0.3000000000E+04         7    1         7       544  0.4570132960E+00  0.4548845158E+00  0.6371258940E+00  0.1728506648E+04  0.7227442258E+04  0.2127425179E+03         2
       3       1  0.3000000000E+04         8    1         8       564  0.4623629356E+00  0.4608557418E+00  0.6285006445E+00  0.1731181468E+04  0.6730427871E+04  0.2125700129E+03         2
       3       1  0.3000000000E+04         9    1         9       584  0.4671398077E+00  0.4710104039E+00  0.6209213573E+00  0.1733569904E+04  0.6235505202E+04  0.2124184271E+03         2
       3       1  0.3000000000E+04        10    1        10       604  0.4705195213E+00  0.4845776454E+00  0.6156072820E+00  0.1735259761E+04  0.5742288823E+04  0.2123121456E+03         2
       3       1  0.3000000000E+04        11    1        11       624  0.4717554745E+00  0.5001061153E+00  0.6136728482E+00  0.1735877737E+04  0.5250053058E+04  0.2122734570E+03         2
       3       1  0.3000000000E+04        12    1        12       644  0.4705235957E+00  0.5156456948E+00  0.6156170471E+00  0.1735261798E+04  0.4757822847E+04  0.2123123409E+03         2
       3       1  0.3000000000E+04        13    1        13       664  0.4671410892E+00  0.5292402590E+00  0.6209390535E+00  0.1733570545E+04  0.4264620130E+04  0.2124187811E+03         2
       3       1  0.3000000000E+04        14    1        14       684  0.4623528282E+00  0.5394228908E+00  0.6285232033E+00  0.1731176414E+04  0.3769711445E+04  0.2125704641E+03         2
       3       1  0.3000000000E+04        15    1        15       704  0.4569847878E+00  0.5454039521E+00  0.6371528205E+00  0.1728492394E+04  0.3272701976E+04  0.2127430564E+03         2
       3       1  0.3000000000E+04        16    1        16       724  0.4517200816E+00  0.5470063428E+00  0.6458114925E+00  0.1725860041E+04  0.2773503171E+04  0.2129162298E+03         2
       3       1  0.3000000000E+04        17    1        17       744  0.4470218506E+00  0.5445022363E+00  0.6537950771E+00  0.1723510925E+04  0.2272251118E+04  0.2130759015E+03         2
       3       1  0.3000000000E+04        18    1        18       764  0.4431529420E+00  0.5384516438E+00  0.6605620236E+00  0.1721576471E+04  0.1769225822E+04  0.2132112405E+03         2
       3       1  0.3000000000E+04        19    1        19       784  0.4402308276E+00  0.5295784179E+00  0.6658388426E+00  0.1720115414E+04  0.1264789209E+04  0.2133167769E+03         2
       3       1  0.3000000000E+04        20    1        20       804  0.4382811497E+00  0.5186933705E+00  0.6694495425E+00  0.1719140575E+04  0.7593466852E+03  0.2133889909E+03         2
       3       1  0.3000000000E+04        21    1        21       824  0.4372823445E+00  0.5064278828E+00  0.6712678964E+00  0.1718641172E+04  0.2532139414E+03  0.2134253579E+03         2
       4       1  0.4000000000E+04         1    1         1       844  0.7296710917E+00  0.4751648433E+00  0.8970056664E+00  0.1864835546E+04  0.1023758242E+05  0.1794011333E+03         3
       4       1  0.4000000000E+04         2    1         2       864  0.7370463347E+00  0.4268752757E+00  0.8967467608E+00  0.1868523167E+04  0.9713437638E+04  0.1793493522E+03         3
       4       1  0.4000000000E+04         3    1         3       884  0.7520284546E+00  0.3818668638E+00  0.8962156822E+00  0.1876014227E+04  0.9190933432E+04  0.1792431364E+03         3
       4       1  0.4000000000E+04         4    1         4       904  0.7755574191E+00  0.3420834482E+00  0.8954329762E+00  0.1887778710E+04  0.8671041724E+04  0.1790865952E+03         3
       4       1  0.4000000000E+04         5    1         5       924  0.8088625224E+00  0.3106132456E+00  0.8944245041E+00  0.1904431261E+04  0.8155306623E+04  0.1788849008E+03         3
       4       1  0.4000000000E+04         6    1         6       944  0.8530762310E+00  0.2913265699E+00  0.8932349694E+00  0.1926538115E+04  0.7645663285E+04  0.1786469939E+03         3
       4       1  0.4000000000E+04         7    1         7       964  0.9084422638E+00  0.2888561845E+00  0.8919369699E+00  0.1954221132E+04  0.7144428092E+04  0.1783873940E+03         3
       4       1  0.4000000000E+04         8    1         8       984  0.9727812562E+00  0.3079294307E+00  0.8906413472E+00  0.1986390628E+04  0.6653964715E+04  0.1781282694E+03         3
       4       1  0.4000000000E+04         9    1         9      1005  0.3906070353E-01  0.3483700783E+00  0.8896119943E+00  0.2019530352E+04  0.6174185039E+04  0.1779223989E+03         3
       4       1  0.4000000000E+04        10    1        10      1025  0.9313314482E-01  0.4141859706E+00  0.8889268974E+00  0.2046566572E+04  0.5707092985E+04  0.1777853795E+03         3
       4       1  0.4000000000E+04        11    1        11      1045  0.1153046626E+00  0.5001204688E+00  0.8886708146E+00  0.2057652331E+04  0.5250060234E+04  0.1777341629E+03         3
       4       1  0.4000000000E+04        12    1        12      1065  0.9314672425E-01  0.5860683835E+00  0.8889255893E+00  0.2046573362E+04  0.4793034192E+04  0.1777851179E+03         3
       4       1  0.4000000000E+04        13    1        13      1085  0.3907787528E-01  0.6519160492E+00  0.8896091704E+00  0.2019538938E+04  0.4325958025E+04  0.1779218341E+03         3
       4       1  0.4000000000E+04        14    1        14      1104  0.9727894002E+00  0.6923867603E+00  0.8906365831E+00  0.1986394700E+04  0.3846193380E+04  0.1781273166E+03         3
       4       1  0.4000000000E+04        15    1        15      1124  0.9084290996E+00  0.7114721932E+00  0.8919300515E+00  0.1954214550E+04  0.3355736097E+04  0.1783860103E+03         3
       4       1  0.4000000000E+04        16    1        16      1144  0.8530374230E+00  0.7089812264E+00  0.8932258784E+00  0.1926518711E+04  0.2854490613E+04  0.1786451757E+03         3
       4       1  0.4000000000E+04        17    1        17      1164  0.8087841584E+00  0.6896339296E+00  0.8944187262E+00  0.1904392079E+04  0.2344816965E+04  0.1788837452E+03         3
       4       1  0.4000000000E+04        18    1        18      1184  0.7754731446E+00  0.6580895955E+00  0.8954275018E+00  0.1887736572E+04  0.1829044798E+04  0.1790855004E+03         3
       4       1  0.4000000000E+04        19    1        19      1204  0.7519675527E+00  0.6182122676E+00  0.8962119474E+00  0.1875983776E+04  0.1309106134E+04  0.1792423895E+03         3
       4       1  0.4000000000E+04        20    1        20      1224  0.7370509369E+00  0.5730457566E+00  0.8967463210E+00  0.1868525468E+04  0.7865228783E+03  0.1793492642E+03         3
       4       1  0.4000000000E+04        21    1        21      1244  0.7297952551E+00  0.5247403031E+00  0.8970151647E+00  0.1864897628E+04  0.2623701515E+03  0.1794030329E+03         3
       5       1  0.5000000000E+04         1    1         1       845  0.2498581294E+00  0.4417058236E+00  0.7538508128E+00  0.2124929065E+04  0.1022085291E+05  0.1507701626E+03         3
       5       1  0.5000000000E+04         2    1         2       865  0.2679982557E+00  0.3272312730E+00  0.7536082083E+00  0.2133999128E+04  0.9663615636E+04  0.1507216417E+03         3
       5       1  0.5000000000E+04         3    1         3       885  0.3054221415E+00  0.2181225386E+00  0.7531059091E+00  0.2152711071E+04  0.9109061269E+04  0.1506211818E+03         3
       5       1  0.5000000000E+04         4    1         4       905  0.3649860343E+00  0.1182306730E+00  0.7523517223E+00  0.2182493017E+04  0.8559115337E+04  0.1504703445E+03         3
       5       1  0.5000000000E+04         5    1         5       925  0.4508224485E+00  0.3403073961E-01  0.7513527962E+00  0.2225411224E+04  0.8017015370E+04  0.1502705592E+03         3
       5       1  0.5000000000E+04         6    1         6       965  0.5744500056E+00  0.9752920302E+00  0.7500866190E+00  0.2287225003E+04  0.7487646015E+04  0.1500173238E+03         3
       5       1  0.5000000000E+04         7    1         7       985  0.7352883819E+00  0.9561716065E+00  0.7486549344E+00  0.2367644191E+04  0.6978085803E+04  0.1497309869E+03         3
       5       1  0.5000000000E+04         8    1         8      1005  0.9123141571E+00  0.9937383108E+00  0.7472563485E+00  0.2456157079E+04  0.6496869155E+04  0.1494512697E+03         3
       5       1  0.5000000000E+04         9    1         9      1006  0.1229066044E+00  0.8904594779E-01  0.7461983510E+00  0.2561453302E+04  0.6044522974E+04  0.1492396702E+03         3
       5       1  0.5000000000E+04        10    1        10      1026  0.3203731557E+00  0.2616983666E+00  0.7455050071E+00  0.2660186578E+04  0.5630849183E+04  0.1491010014E+03         3
       5       1  0.5000000000E+04        11    1        11      1046  0.4142586536E+00  0.5001234308E+00  0.7452175943E+00  0.2707129327E+04  0.5250061715E+04  0.1490435189E+03         3
       5       1  0.5000000000E+04        12    1        12      1066  0.3204069231E+00  0.7385739474E+00  0.7455020801E+00  0.2660203462E+04  0.4869286974E+04  0.1491004160E+03         3
       5       1  0.5000000000E+04        13    1        13      1086  0.1229544519E+00  0.9112805113E+00  0.7461923080E+00  0.2561477226E+04  0.4455640256E+04  0.1492384616E+03         3
       5       1  0.5000000000E+04        14    1        14      1085  0.9125184325E+00  0.6632561628E-02  0.7472459952E+00  0.2456259216E+04  0.4003316281E+04  0.1494491990E+03         3
       5       1  0.5000000000E+04        15    1        15      1105  0.7354295641E+00  0.4422143059E-01  0.7486407598E+00  0.2367714782E+04  0.3522110715E+04  0.1497281520E+03         3
       5       1  0.5000000000E+04        16    1        16      1125  0.5745239278E+00  0.2508541500E-01  0.7500679693E+00  0.2287261964E+04  0.3012542708E+04  0.1500135939E+03         3
       5       1  0.5000000000E+04        17    1        17      1165  0.4507418169E+00  0.9662888303E+00  0.7513342849E+00  0.2225370908E+04  0.2483144415E+04  0.1502668570E+03         3
       5       1  0.5000000000E+04        18    1        18      1185  0.3648920426E+00  0.8820305096E+00  0.7523300106E+00  0.2182446021E+04  0.1941015255E+04  0.1504660021E+03         3
       5       1  0.5000000000E+04        19    1        19      1205  0.3053506406E+00  0.7820614438E+00  0.7530819013E+00  0.2152675320E+04  0.1391030722E+04  0.1506163803E+03         3
       5       1  0.5000000000E+04        20    1        20      1225  0.2679898932E+00  0.6727745335E+00  0.7535830437E+00  0.2133994947E+04  0.8363872668E+03  0.1507166087E+03         3
       5       1  0.5000000000E+04        21    1        21      1245  0.2499626290E+00  0.5582296268E+00  0.7538318442E+00  0.2124981315E+04  0.2791148134E+03  0.1507663688E+03         3
       6       1  0.6000000000E+04         1    1         1       845  0.8286957420E+00  0.4031202118E+00  0.6349294695E+00  0.2414347871E+04  0.1020156011E+05  0.1269858939E+03         3
       6       1  0.6000000000E+04         2    1         2       865  0.8594940310E+00  0.2125590129E+00  0.6346335602E+00  0.2429747015E+04  0.9606279506E+04  0.1269267120E+03         3
       6       1  0.6000000000E+04         3    1         3       885  0.9235794926E+00  0.3058052167E-01  0.6340279728E+00  0.2461789746E+04  0.9015290261E+04  0.1268055946E+03         3
       6       1  0.6000000000E+04         4    1         4       926  0.5531081149E-01  0.8604188479E+00  0.6331658662E+00  0.2527655406E+04  0.8430209424E+04  0.1266331732E+03         3
       6       1  0.6000000000E+04         5    1         5       946  0.2461977741E+00  0.7033508075E+00  0.6324317579E+00  0.2623098887E+04  0.7851675404E+04  0.1264863516E+03         3
       6       1  0.6000000000E+04         6    1         6       966  0.5034865712E+00  0.5803288226E+00  0.6314351724E+00  0.2751743286E+04  0.7290164411E+04  0.1262870345E+03         3
       6       1  0.6000000000E+04         7    1         7       986  0.8410231823E+00  0.5218322929E+00  0.6301791319E+00  0.2920511591E+04  0.6760916146E+04  0.1260358264E+03         3
       6       1  0.6000000000E+04         8    1         8      1007  0.2627869458E+00  0.5294582429E+00  0.6292921934E+00  0.3131393473E+04  0.6264729121E+04  0.1258584387E+03         3
       6       1  0.6000000000E+04         9    1         9      1027  0.7612217349E+00  0.6674852671E+00  0.6286311033E+00  0.3380610867E+04  0.5833742634E+04  0.1257262207E+03         3
       6       1  0.6000000000E+04        10    1        10      1048  0.1387601873E+00  0.9804708356E+00  0.6284397205E+00  0.3569380094E+04  0.5490235418E+04  0.1256879441E+03         3
       6       1  0.6000000000E+04        11    1        11      1048  0.6178473160E+00  0.5000804996E+00  0.6282974432E+00  0.3808923658E+04  0.5250040250E+04  0.1256594886E+03         3
       6       1  0.6000000000E+04        12    1        12      1048  0.1390020562E+00  0.1978132251E-01  0.6284353160E+00  0.3569501028E+04  0.5009890661E+04  0.1256870632E+03         3
       6       1  0.6000000000E+04        13    1        13      1067  0.7615356532E+00  0.3328498025E+00  0.6286238062E+00  0.3380767827E+04  0.4666424901E+04  0.1257247612E+03         3
       6       1  0.6000000000E+04        14    1        14      1087  0.2630715069E+00  0.4709997861E+00  0.6292811813E+00  0.3131535753E+04  0.4235499893E+04  0.1258562363E+03         3
       6       1  0.6000000000E+04        15    1        15      1106  0.8412182329E+00  0.4786368361E+00  0.6301626558E+00  0.2920609116E+04  0.3739318418E+04  0.1260325312E+03         3
       6       1  0.6000000000E+04        16    1        16      1126  0.5035969591E+00  0.4201362864E+00  0.6314129807E+00  0.2751798480E+04  0.3210068143E+04  0.1262825961E+03         3
       6       1  0.6000000000E+04        17    1        17      1146  0.2462071706E+00  0.2970537311E+00  0.6324065414E+00  0.2623103585E+04  0.2648526866E+04  0.1264813083E+03         3
       6       1  0.6000000000E+04        18    1        18      1166  0.5528093721E-01  0.1399374229E+00  0.6331342782E+00  0.2527640469E+04  0.2069968711E+04  0.1266268556E+03         3
       6       1  0.6000000000E+04        19    1        19      1205  0.9235111479E+00  0.9697212338E+00  0.6339900071E+00  0.2461755574E+04  0.1484860617E+04  0.1267980014E+03         3
       6       1  0.6000000000E+04        20    1        20      1225  0.8594900962E+00  0.7875483409E+00  0.6345906624E+00  0.2429745048E+04  0.8937741704E+03  0.1269181325E+03         3
       6       1  0.6000000000E+04        21    1        21      1245  0.8287930059E+00  0.5968548075E+00  0.6348892194E+00  0.2414396503E+04  0.2984274038E+03  0.1269778439E+03         3
       7       1  0.7000000000E+04         1    1         1       846  0.4688479802E+00  0.3569347558E+00  0.5368469895E+00  0.2734423990E+04  0.1017846738E+05  0.1073693979E+03         3
       7       1  0.7000000000E+04         2    1         2       866  0.5137937136E+00  0.7345299694E-01  0.5366641978E+00  0.2756896857E+04  0.9536726498E+04  0.1073328396E+03         3
       7       1  0.7000000000E+04         3    1         3       906  0.6404733582E+00  0.7965844287E+00  0.5360374209E+00  0.2820236679E+04  0.8898292214E+04  0.1072074842E+03         3
       7       1  0.7000000000E+04         4    1         4       926  0.8499979493E+00  0.5314925134E+00  0.5352170803E+00  0.2924998975E+04  0.8265746257E+04  0.1070434161E+03         3
       7       1  0.7000000000E+04         5    1         5       947  0.1484002703E+00  0.2772083885E+00  0.5346444012E+00  0.3074200135E+04  0.7638604194E+04  0.1069288802E+03         3
       7       1  0.7000000000E+04         6    1         6       967  0.5633393686E+00  0.3300689505E-01  0.5343373626E+00  0.3281669684E+04  0.7016503448E+04  0.1068674725E+03         3
       7       1  0.7000000000E+04         7    1         7      1008  0.2118669726E+00  0.8284913466E+00  0.5337138447E+00  0.3605933486E+04  0.6414245673E+04  0.1067427689E+03         3
       7       1  0.7000000000E+04         8    1         8      1029  0.2415654296E+00  0.5880908348E+00  0.5335543723E+00  0.4120782715E+04  0.5794045417E+04  0.1067108745E+03         3
       7       1  0.7000000000E+04        14    1        14      1069  0.2423316974E+00  0.4127202280E+00  0.5335430789E+00  0.4121165849E+04  0.4706360114E+04  0.1067086158E+03         3
       7       1  0.7000000000E+04        15    1        15      1088  0.2123846130E+00  0.1721890574E+00  0.5336964642E+00  0.3606192307E+04  0.4086094529E+04  0.1067392928E+03         3
       7       1  0.7000000000E+04        16    1        16      1127  0.5634735622E+00  0.9675784285E+00  0.5343130663E+00  0.3281736781E+04  0.3483789214E+04  0.1068626133E+03         3