MODPATH_ENDPOINT_FILE         7         0
    1      3780      3780      3780   0.0000000000E+00
       0       0    2705       0       0    1075       0       0       0       0
         1
PG1             
END HEADER
         1         1         1    2  0.0000000000E+00  0.7196462968E+05         1    1  0.1666666667E+00  0.1666666667E+00  0.1000000000E+01  0.8333333333E+02  0.1008333333E+05  0.3390806274E+03    1    6       220    1  0.9981680954E+00  0.8616436477E+00  0.1000000000E+01  0.9999084048E+04  0.5430821824E+04  0.3201781311E+03    1    6
         2         1         2    2  0.0000000000E+00  0.5247651322E+05         1    1  0.5000000000E+00  0.1666666667E+00  0.1000000000E+01  0.2500000000E+03  0.1008333333E+05  0.3390806274E+03    1    6       180    1  0.9952390384E+00  0.8469560164E+00  0.1000000000E+01  0.9997619519E+04  0.6423478008E+04  0.3201782227E+03    1    6
         3         1         3    2  0.0000000000E+00  0.4550558512E+05         1    1  0.8333333333E+00  0.1666666667E+00  0.1000000000E+01  0.4166666667E+03  0.1008333333E+05  0.3390806274E+03    1    6       160    1  0.9925855348E+00  0.9458520301E+00  0.1000000000E+01  0.9996292767E+04  0.6972926015E+04  0.3201783142E+03    1    6
         4         1         4    2  0.0000000000E+00  0.6547628181E+05         1    1  0.1666666667E+00  0.5000000000E+00  0.1000000000E+01  0.8333333333E+02  0.1025000000E+05  0.3390806274E+03    1    6       160    1  0.9989358334E+00  0.2056871178E+00  0.1000000000E+01  0.9999467917E+04  0.6602843559E+04  0.3201783142E+03    1    6
         5         1         5    2  0.0000000000E+00  0.5124787684E+05         1    1  0.5000000000E+00  0.5000000000E+00  0.1000000000E+01  0.2500000000E+03  0.1025000000E+05  0.3390806274E+03    1    6       120    1  0.9970224940E+00  0.3894529398E+00  0.1000000000E+01  0.9998511247E+04  0.7694726470E+04  0.3201785583E+03    1    6
         6         1         6    2  0.0000000000E+00  0.4476672923E+05         1    1  0.8333333333E+00  0.5000000000E+00  0.1000000000E+01  0.4166666667E+03  0.1025000000E+05  0.3390806274E+03    1    6       100    1  0.9946049644E+00  0.3898514104E+00  0.1000000000E+01  0.9997302482E+04  0.8194925705E+04  0.3201786804E+03    1    6
         7         1         7    2  0.0000000000E+00  0.6447506817E+05         1    1  0.1666666667E+00  0.8333333333E+00  0.1000000000E+01  0.8333333333E+02  0.1041666667E+05  0.3390806274E+03    1    6        80    1  0.9995282467E+00  0.6774826635E+00  0.1000000000E+01  0.9999764123E+04  0.8838741332E+04  0.3201787720E+03    1    6
         8         1         8    2  0.0000000000E+00  0.5076765424E+05         1    1  0.5000000000E+00  0.8333333333E+00  0.1000000000E+01  0.2500000000E+03  0.1041666667E+05  0.3390806274E+03    1    6        60    1  0.9978556147E+00  0.9619056936E+00  0.1000000000E+01  0.9998927807E+04  0.9480952847E+04  0.3201788635E+03    1    6
         9         1         9    2  0.0000000000E+00  0.4439807363E+05         1    1  0.8333333333E+00  0.8333333333E+00  0.1000000000E+01  0.4166666667E+03  0.1041666667E+05  0.3390806274E+03    1    6        40    1  0.9954963766E+00  0.3927697668E+00  0.1000000000E+01  0.9997748188E+04  0.9696384883E+04  0.3201789246E+03    1    6
        10         1        10    2  0.0000000000E+00  0.4103489469E+05         2    1  0.1666666667E+00  0.1666666667E+00  0.1000000000E+01  0.5833333333E+03  0.1008333333E+05  0.3390251770E+03    1    6       140    1  0.9895732621E+00  0.7222842122E+00  0.1000000000E+01  0.9994786631E+04  0.7361142106E+04  0.3201784363E+03    1    6
        11         1        11    2  0.0000000000E+00  0.3773386723E+05         2    1  0.5000000000E+00  0.1666666667E+00  0.1000000000E+01  0.7500000000E+03  0.1008333333E+05  0.3390251770E+03    1    6       120    1  0.9862567083E+00  0.3044567436E+00  0.1000000000E+01  0.9993128354E+04  0.7652228372E+04  0.3201785583E+03    1    6
        12         1        12    2  0.0000000000E+00  0.3508919450E+05         2    1  0.8333333333E+00  0.1666666667E+00  0.1000000000E+01  0.9166666667E+03  0.1008333333E+05  0.3390251770E+03    1    6       120    1  0.9827230409E+00  0.7880058559E+00  0.1000000000E+01  0.9991361520E+04  0.7894002928E+04  0.3201785583E+03    1    6
        13         1        13    2  0.0000000000E+00  0.4048175649E+05         2    1  0.1666666667E+00  0.5000000000E+00  0.1000000000E+01  0.5833333333E+03  0.1025000000E+05  0.3390251770E+03    1    6        80    1  0.9918118128E+00  0.1306538399E-01  0.1000000000E+01  0.9995905906E+04  0.8506532692E+04  0.3201787720E+03    1    6
        14         1        14    2  0.0000000000E+00  0.3729041883E+05         2    1  0.5000000000E+00  0.5000000000E+00  0.1000000000E+01  0.7500000000E+03  0.1025000000E+05  0.3390251770E+03    1    6        80    1  0.9884725802E+00  0.4438959383E+00  0.1000000000E+01  0.9994236290E+04  0.8721947969E+04  0.3201787720E+03    1    6
        15         1        15    2  0.0000000000E+00  0.3471667045E+05         2    1  0.8333333333E+00  0.5000000000E+00  0.1000000000E+01  0.9166666667E+03  0.1025000000E+05  0.3390251770E+03    1    6        80    1  0.9848961184E+00  0.7841899749E+00  0.1000000000E+01  0.9992448059E+04  0.8892094987E+04  0.3201787720E+03    1    6
        16         1        16    2  0.0000000000E+00  0.4017964393E+05         2    1  0.1666666667E+00  0.8333333333E+00  0.1000000000E+01  0.5833333333E+03  0.1041666667E+05  0.3390251770E+03    1    6        40    1  0.9926550704E+00  0.6337990574E+00  0.1000000000E+01  0.9996327535E+04  0.9816899529E+04  0.3201789246E+03    1    6
        17         1        17    2  0.0000000000E+00  0.3702724200E+05         2    1  0.5000000000E+00  0.8333333333E+00  0.1000000000E+01  0.7500000000E+03  0.1041666667E+05  0.3390251770E+03    1    6        40    1  0.9894164468E+00  0.7924724070E+00  0.1000000000E+01  0.9994708223E+04  0.9896236203E+04  0.3201789246E+03    1    6
        18         1        18    2  0.0000000000E+00  0.3448449279E+05         2    1  0.8333333333E+00  0.8333333333E+00  0.1000000000E+01  0.9166666667E+03  0.1041666667E+05  0.3390251770E+03    1    6        40    1  0.9858229194E+00  0.9146522007E+00  0.1000000000E+01  0.9992911460E+04  0.9957326100E+04  0.3201789246E+03    1    6
        19         1        19    2  0.0000000000E+00  0.3287284940E+05         3    1  0.1666666667E+00  0.1666666667E+00  0.1000000000E+01  0.1083333333E+04  0.1008333333E+05  0.3389134216E+03    1    6       100    1  0.9787993241E+00  0.1812236320E+00  0.1000000000E+01  0.9989399662E+04  0.8090611816E+04  0.3201786804E+03    1    6
        20         1        20    2  0.0000000000E+00  0.3096406208E+05         3    1  0.5000000000E+00  0.1666666667E+00  0.1000000000E+01  0.1250000000E+04  0.1008333333E+05  0.3389134216E+03    1    6       100    1  0.9744404542E+00  0.5391297801E+00  0.1000000000E+01  0.9987220227E+04  0.8269564890E+04  0.3201786804E+03    1    6
        21         1        21    2  0.0000000000E+00  0.2927253099E+05         3    1  0.8333333333E+00  0.1666666667E+00  0.1000000000E+01  0.1416666667E+04  0.1008333333E+05  0.3389134216E+03    1    6       100    1  0.9700162016E+00  0.8413651665E+00  0.1000000000E+01  0.9985008101E+04  0.8420682583E+04  0.3201786804E+03    1    6
        22         1        22    2  0.0000000000E+00  0.3254812530E+05         3    1  0.1666666667E+00  0.5000000000E+00  0.1000000000E+01  0.1083333333E+04  0.1025000000E+05  0.3389134216E+03    1    6        60    1  0.9809854981E+00  0.5083348302E-01  0.1000000000E+01  0.9990492749E+04  0.9025416742E+04  0.3201788635E+03    1    6
        23         1        23    2  0.0000000000E+00  0.3067935414E+05         3    1  0.5000000000E+00  0.5000000000E+00  0.1000000000E+01  0.1250000000E+04  0.1025000000E+05  0.3389134216E+03    1    6        60    1  0.9765261116E+00  0.2869557005E+00  0.1000000000E+01  0.9988263056E+04  0.9143477850E+04  0.3201788635E+03    1    6
        24         1        24    2  0.0000000000E+00  0.2901162501E+05         3    1  0.8333333333E+00  0.5000000000E+00  0.1000000000E+01  0.1416666667E+04  0.1025000000E+05  0.3389134216E+03    1    6        60    1  0.9717541656E+00  0.4821653184E+00  0.1000000000E+01  0.9985877083E+04  0.9241082659E+04  0.3201788635E+03    1    6
        25         1        25    2  0.0000000000E+00  0.3234435930E+05         3    1  0.1666666667E+00  0.8333333333E+00  0.1000000000E+01  0.1083333333E+04  0.1041666667E+05  0.3389134216E+03    1    6        20    1  0.9818696008E+00  0.8327137489E-02  0.1000000000E+01  0.9990934800E+04  0.1000416357E+05  0.3201789551E+03    1    6
        26         1        26    2  0.0000000000E+00  0.3050124739E+05         3    1  0.5000000000E+00  0.8333333333E+00  0.1000000000E+01  0.1250000000E+04  0.1041666667E+05  0.3389134216E+03    1    6        20    1  0.9774741631E+00  0.9027544352E-01  0.1000000000E+01  0.9988737082E+04  0.1004513772E+05  0.3201789551E+03    1    6
        27         1        27    2  0.0000000000E+00  0.2885421314E+05         3    1  0.8333333333E+00  0.8333333333E+00  0.1000000000E+01  0.1416666667E+04  0.1041666667E+05  0.3389134216E+03    1    6        20    1  0.9727054784E+00  0.1575883943E+00  0.1000000000E+01  0.9986352739E+04  0.1007879420E+05  0.3201789551E+03    1    6
        28         1        28    2  0.0000000000E+00  0.2775383698E+05         4    1  0.1666666667E+00  0.1666666667E+00  0.1000000000E+01  0.1583333333E+04  0.1008333333E+05  0.3387437134E+03    1    6        80    1  0.9651398666E+00  0.1296184093E+00  0.1000000000E+01  0.9982569933E+04  0.8564809205E+04  0.3201787720E+03    1    6
        29         1        29    2  0.0000000000E+00  0.2634875070E+05         4    1  0.5000000000E+00  0.1666666667E+00  0.1000000000E+01  0.1750000000E+04  0.1008333333E+05  0.3387437134E+03    1    6        80    1  0.9596416113E+00  0.3848326791E+00  0.1000000000E+01  0.9979820806E+04  0.8692416340E+04  0.3201787720E+03    1    6
        30         1        30    2  0.0000000000E+00  0.2506275331E+05         4    1  0.8333333333E+00  0.1666666667E+00  0.1000000000E+01  0.1916666667E+04  0.1008333333E+05  0.3387437134E+03    1    6        80    1  0.9539235802E+00  0.6290501579E+00  0.1000000000E+01  0.9976961790E+04  0.8814525079E+04  0.3201787720E+03    1    6
        31         1        31    2  0.0000000000E+00  0.2751977872E+05         4    1  0.1666666667E+00  0.5000000000E+00  0.1000000000E+01  0.1583333333E+04  0.1025000000E+05  0.3387437134E+03    1    6        60    1  0.9666968104E+00  0.6634211455E+00  0.1000000000E+01  0.9983348405E+04  0.9331710573E+04  0.3201788635E+03    1    6
        32         1        32    2  0.0000000000E+00  0.2613860218E+05         4    1  0.5000000000E+00  0.5000000000E+00  0.1000000000E+01  0.1750000000E+04  0.1025000000E+05  0.3387437134E+03    1    6        60    1  0.9613278091E+00  0.8228686233E+00  0.1000000000E+01  0.9980663905E+04  0.9411434312E+04  0.3201788635E+03    1    6
        33         1        33    2  0.0000000000E+00  0.2487824677E+05         4    1  0.8333333333E+00  0.5000000000E+00  0.1000000000E+01  0.1916666667E+04  0.1025000000E+05  0.3387437134E+03    1    6        60    1  0.9557094268E+00  0.9744624713E+00  0.1000000000E+01  0.9977854713E+04  0.9487231236E+04  0.3201788635E+03    1    6
        34         1        34    2  0.0000000000E+00  0.2738018057E+05         4    1  0.1666666667E+00  0.8333333333E+00  0.1000000000E+01  0.1583333333E+04  0.1041666667E+05  0.3387437134E+03    1    6        20    1  0.9675619684E+00  0.2195802030E+00  0.1000000000E+01  0.9983780984E+04  0.1010979010E+05  0.3201789551E+03    1    6
        35         1        35    2  0.0000000000E+00  0.2601348141E+05         4    1  0.5000000000E+00  0.8333333333E+00  0.1000000000E+01  0.1750000000E+04  0.1041666667E+05  0.3387437134E+03    1    6        20    1  0.9620193425E+00  0.2736688388E+00  0.1000000000E+01  0.9981009671E+04  0.1013683442E+05  0.3201789551E+03    1    6
        36         1        36    2  0.0000000000E+00  0.2476282871E+05         4    1  0.8333333333E+00  0.8333333333E+00  0.1000000000E+01  0.1916666667E+04  0.1041666667E+05  0.3387437134E+03    1    6        20    1  0.9560675825E+00  0.3246932391E+00  0.1000000000E+01  0.9978033791E+04  0.1016234662E+05  0.3201789551E+03    1    6
        37         1        37    2  0.0000000000E+00  0.2383448522E+05         5    1  0.1666666667E+00  0.1666666667E+00  0.1000000000E+01  0.2083333333E+04  0.1008333333E+05  0.3385135498E+03    1    6        80    1  0.9479547362E+00  0.8535849799E+00  0.1000000000E+01  0.9973977368E+04  0.8926792490E+04  0.3201787720E+03    1    6
        38         1        38    2  0.0000000000E+00  0.2270087815E+05         5    1  0.5000000000E+00  0.1666666667E+00  0.1000000000E+01  0.2250000000E+04  0.1008333333E+05  0.3385135498E+03    1    6        60    1  0.9415338500E+00  0.7238154375E-01  0.1000000000E+01  0.9970766925E+04  0.9036190772E+04  0.3201788635E+03    1    6
        39         1        39    2  0.0000000000E+00  0.2158711009E+05         5    1  0.8333333333E+00  0.1666666667E+00  0.1000000000E+01  0.2416666667E+04  0.1008333333E+05  0.3385135498E+03    1    6        60    1  0.9341368487E+00  0.2751548771E+00  0.1000000000E+01  0.9967068424E+04  0.9137577439E+04  0.3201788635E+03    1    6
        40         1        40    2  0.0000000000E+00  0.2367326032E+05         5    1  0.1666666667E+00  0.5000000000E+00  0.1000000000E+01  0.2083333333E+04  0.1025000000E+05  0.3385135498E+03    1    6        40    1  0.9493418299E+00  0.1126920437E+00  0.1000000000E+01  0.9974670915E+04  0.9556346022E+04  0.3201789246E+03    1    6
        41         1        41    2  0.0000000000E+00  0.2255412603E+05         5    1  0.5000000000E+00  0.5000000000E+00  0.1000000000E+01  0.2250000000E+04  0.1025000000E+05  0.3385135498E+03    1    6        40    1  0.9424340506E+00  0.2458316275E+00  0.1000000000E+01  0.9971217025E+04  0.9622915814E+04  0.3201789246E+03    1    6
        42         1        42    2  0.0000000000E+00  0.2145200240E+05         5    1  0.8333333333E+00  0.5000000000E+00  0.1000000000E+01  0.2416666667E+04  0.1025000000E+05  0.3385135498E+03    1    6        40    1  0.9349940266E+00  0.3686014469E+00  0.1000000000E+01  0.9967497013E+04  0.9684300723E+04  0.3201789246E+03    1    6
        43         1        43    2  0.0000000000E+00  0.2356647868E+05         5    1  0.1666666667E+00  0.8333333333E+00  0.1000000000E+01  0.2083333333E+04  0.1041666667E+05  0.3385135498E+03    1    6        20    1  0.9496670644E+00  0.3709282488E+00  0.1000000000E+01  0.9974833532E+04  0.1018546412E+05  0.3201789551E+03    1    6
        44         1        44    2  0.0000000000E+00  0.2245723822E+05         5    1  0.5000000000E+00  0.8333333333E+00  0.1000000000E+01  0.2250000000E+04  0.1041666667E+05  0.3385135498E+03    1    6        20    1  0.9427954264E+00  0.4153969972E+00  0.1000000000E+01  0.9971397713E+04  0.1020769850E+05  0.3201789551E+03    1    6
        45         1        45    2  0.0000000000E+00  0.2136639422E+05         5    1  0.8333333333E+00  0.8333333333E+00  0.1000000000E+01  0.2416666667E+04  0.1041666667E+05  0.3385135498E+03    1    6        20    1  0.9353965760E+00  0.4563708068E+00  0.1000000000E+01  0.9967698288E+04  0.1022818540E+05  0.3201789551E+03    1    6
        46         1        46    2  0.0000000000E+00  0.2053852516E+05         6    1  0.1666666667E+00  0.1666666667E+00  0.1000000000E+01  0.2583333333E+04  0.1008333333E+05  0.3382193298E+03    1    6        60    1  0.9262502433E+00  0.4738422669E+00  0.1000000000E+01  0.9963125122E+04  0.9236921133E+04  0.3201788635E+03    1    6
        47         1        47    2  0.0000000000E+00  0.1951443609E+05         6    1  0.5000000000E+00  0.1666666667E+00  0.1000000000E+01  0.2750000000E+04  0.1008333333E+05  0.3382193298E+03    1    6        60    1  0.9178395759E+00  0.6710271610E+00  0.1000000000E+01  0.9958919788E+04  0.9335513580E+04  0.3201788635E+03    1    6
        48         1        48    2  0.0000000000E+00  0.1836859067E+05         6    1  0.8333333333E+00  0.1666666667E+00  0.1000000000E+01  0.2916666667E+04  0.1008333333E+05  0.3382193298E+03    1    6        60    1  0.9089193741E+00  0.8662497776E+00  0.1000000000E+01  0.9954459687E+04  0.9433124889E+04  0.3201788635E+03    1    6
        49         1        49    2  0.0000000000E+00  0.2041638224E+05         6    1  0.1666666667E+00  0.5000000000E+00  0.1000000000E+01  0.2583333333E+04  0.1025000000E+05  0.3382193298E+03    1    6        40    1  0.9269861994E+00  0.4884767485E+00  0.1000000000E+01  0.9963493100E+04  0.9744238374E+04  0.3201789246E+03    1    6
        50         1        50    2  0.0000000000E+00  0.1941506134E+05         6    1  0.5000000000E+00  0.5000000000E+00  0.1000000000E+01  0.2750000000E+04  0.1025000000E+05  0.3382193298E+03    1    6        40    1  0.9183297840E+00  0.6066248493E+00  0.1000000000E+01  0.9959164892E+04  0.9803312425E+04  0.3201789246E+03    1    6
        51         1        51    2  0.0000000000E+00  0.1827259681E+05         6    1  0.8333333333E+00  0.5000000000E+00  0.1000000000E+01  0.2916666667E+04  0.1025000000E+05  0.3382193298E+03    1    6        40    1  0.9089397066E+00  0.7240100703E+00  0.1000000000E+01  0.9954469853E+04  0.9862005035E+04  0.3201789246E+03    1    6
        52         1        52    2  0.0000000000E+00  0.2034425253E+05         6    1  0.1666666667E+00  0.8333333333E+00  0.1000000000E+01  0.2583333333E+04  0.1041666667E+05  0.3382193298E+03    1    6        20    1  0.9274334609E+00  0.4963468179E+00  0.1000000000E+01  0.9963716730E+04  0.1024817341E+05  0.3201789551E+03    1    6
        53         1        53    2  0.0000000000E+00  0.1936700766E+05         6    1  0.5000000000E+00  0.8333333333E+00  0.1000000000E+01  0.2750000000E+04  0.1041666667E+05  0.3382193298E+03    1    6        20    1  0.9188160648E+00  0.5355764921E+00  0.1000000000E+01  0.9959408032E+04  0.1026778825E+05  0.3201789551E+03    1    6
        54         1        54    2  0.0000000000E+00  0.1824083642E+05         6    1  0.8333333333E+00  0.8333333333E+00  0.1000000000E+01  0.2916666667E+04  0.1041666667E+05  0.3382193298E+03    1    6        20    1  0.9094367858E+00  0.5747185929E+00  0.1000000000E+01  0.9954718393E+04  0.1028735930E+05  0.3201789551E+03    1    6
        55         1        55    2  0.0000000000E+00  0.1726701545E+05         7    1  0.1666666667E+00  0.1666666667E+00  0.1000000000E+01  0.3083333333E+04  0.1008333333E+05  0.3378562927E+03    1    6        40    1  0.8992256979E+00  0.4642637437E-01  0.1000000000E+01  0.9949612849E+04  0.9523213187E+04  0.3201789246E+03    1    6
        56         1        56    2  0.0000000000E+00  0.1609015390E+05         7    1  0.5000000000E+00  0.1666666667E+00  0.1000000000E+01  0.3250000000E+04  0.1008333333E+05  0.3378562927E+03    1    6        40    1  0.8880117772E+00  0.2210884865E+00  0.1000000000E+01  0.9944005889E+04  0.9610544243E+04  0.3201789246E+03    1    6
        57         1        57    2  0.0000000000E+00  0.1499390282E+05         7    1  0.8333333333E+00  0.1666666667E+00  0.1000000000E+01  0.3416666667E+04  0.1008333333E+05  0.3378562927E+03    1    6        40    1  0.8756638053E+00  0.3856682800E+00  0.1000000000E+01  0.9937831903E+04  0.9692834140E+04  0.3201789246E+03    1    6
        58         1        58    2  0.0000000000E+00  0.1716697847E+05         7    1  0.1666666667E+00  0.5000000000E+00  0.1000000000E+01  0.3083333333E+04  0.1025000000E+05  0.3378562927E+03    1    6        40    1  0.8987630537E+00  0.8318873592E+00  0.1000000000E+01  0.9949381527E+04  0.9915943680E+04  0.3201789246E+03    1    6
        59         1        59    2  0.0000000000E+00  0.1598787086E+05         7    1  0.5000000000E+00  0.5000000000E+00  0.1000000000E+01  0.3250000000E+04  0.1025000000E+05  0.3378562927E+03    1    6        40    1  0.8877599341E+00  0.9361648338E+00  0.1000000000E+01  0.9943879967E+04  0.9968082417E+04  0.3201789246E+03    1    6
        60         1        60    2  0.0000000000E+00  0.1489946535E+05         7    1  0.8333333333E+00  0.5000000000E+00  0.1000000000E+01  0.3416666667E+04  0.1025000000E+05  0.3378562927E+03    1    6        20    1  0.8756425076E+00  0.3436093088E-01  0.1000000000E+01  0.9937821254E+04  0.1001718047E+05  0.3201789551E+03    1    6
        61         1        61    2  0.0000000000E+00  0.1714988917E+05         7    1  0.1666666667E+00  0.8333333333E+00  0.1000000000E+01  0.3083333333E+04  0.1041666667E+05  0.3378562927E+03    1    6        20    1  0.8991948088E+00  0.6106787045E+00  0.1000000000E+01  0.9949597404E+04  0.1030533935E+05  0.3201789551E+03    1    6
        62         1        62    2  0.0000000000E+00  0.1598247332E+05         7    1  0.5000000000E+00  0.8333333333E+00  0.1000000000E+01  0.3250000000E+04  0.1041666667E+05  0.3378562927E+03    1    6        20    1  0.8879724534E+00  0.6454216998E+00  0.1000000000E+01  0.9943986227E+04  0.1032271085E+05  0.3201789551E+03    1    6
        63         1        63    2  0.0000000000E+00  0.1489946535E+05         7    1  0.8333333333E+00  0.8333333333E+00  0.1000000000E+01  0.3416666667E+04  0.1041666667E+05  0.3378562927E+03    1    6        20    1  0.8756425076E+00  0.6781203103E+00  0.1000000000E+01  0.9937821254E+04  0.1033906016E+05  0.3201789551E+03    1    6
        64         1        64    2  0.0000000000E+00  0.1403462336E+05         8    1  0.1666666667E+00  0.1666666667E+00  0.1000000000E+01  0.3583333333E+04  0.1008333333E+05  0.3374182129E+03    1    6        40    1  0.8619572750E+00  0.5561900015E+00  0.1000000000E+01  0.9930978637E+04  0.9778095001E+04  0.3201789246E+03    1    6
        65         1        65    2  0.0000000000E+00  0.1276218172E+05         8    1  0.5000000000E+00  0.1666666667E+00  0.1000000000E+01  0.3750000000E+04  0.1008333333E+05  0.3374182129E+03    1    6        40    1  0.8465396321E+00  0.7223321716E+00  0.1000000000E+01  0.9923269816E+04  0.9861166086E+04  0.3201789246E+03    1    6
        66         1        66    2  0.0000000000E+00  0.1208560642E+05         8    1  0.8333333333E+00  0.1666666667E+00  0.1000000000E+01  0.3916666667E+04  0.1008333333E+05  0.3374182129E+03    1    6        40    1  0.8289862556E+00  0.9129454418E+00  0.1000000000E+01  0.9914493128E+04  0.9956472721E+04  0.3201789246E+03    1    6
        67         1        67    2  0.0000000000E+00  0.1396018063E+05         8    1  0.1666666667E+00  0.5000000000E+00  0.1000000000E+01  0.3583333333E+04  0.1025000000E+05  0.3374182129E+03    1    6        20    1  0.8619752749E+00  0.1359405146E+00  0.1000000000E+01  0.9930987637E+04  0.1006797026E+05  0.3201789551E+03    1    6
        68         1        68    2  0.0000000000E+00  0.1271239726E+05         8    1  0.5000000000E+00  0.5000000000E+00  0.1000000000E+01  0.3750000000E+04  0.1025000000E+05  0.3374182129E+03    1    6        20    1  0.8465983515E+00  0.2348438010E+00  0.1000000000E+01  0.9923299176E+04  0.1011742190E+05  0.3201789551E+03    1    6
        69         1        69    2  0.0000000000E+00  0.1206957382E+05         8    1  0.8333333333E+00  0.5000000000E+00  0.1000000000E+01  0.3916666667E+04  0.1025000000E+05  0.3374182129E+03    1    6        20    1  0.8290047370E+00  0.3481259640E+00  0.1000000000E+01  0.9914502368E+04  0.1017406298E+05  0.3201789551E+03    1    6
        70         1        70    2  0.0000000000E+00  0.1396018063E+05         8    1  0.1666666667E+00  0.8333333333E+00  0.1000000000E+01  0.3583333333E+04  0.1041666667E+05  0.3374182129E+03    1    6        20    1  0.8619752749E+00  0.7119801715E+00  0.1000000000E+01  0.9930987637E+04  0.1035599009E+05  0.3201789551E+03    1    6
        71         1        71    2  0.0000000000E+00  0.1271239726E+05         8    1  0.5000000000E+00  0.8333333333E+00  0.1000000000E+01  0.3750000000E+04  0.1041666667E+05  0.3374182129E+03    1    6        20    1  0.8465983515E+00  0.7449479337E+00  0.1000000000E+01  0.9923299176E+04  0.1037247397E+05  0.3201789551E+03    1    6
        72         1        72    2  0.0000000000E+00  0.1206957382E+05         8    1  0.8333333333E+00  0.8333333333E+00  0.1000000000E+01  0.3916666667E+04  0.1041666667E+05  0.3374182129E+03    1    6        20    1  0.8290047370E+00  0.7827086547E+00  0.1000000000E+01  0.9914502368E+04  0.1039135433E+05  0.3201789551E+03    1    6
        73         1        73    2  0.0000000000E+00  0.5111979791E+04         9    1  0.1666666667E+00  0.1666666667E+00  0.1000000000E+01  0.4083333333E+04  0.1008333333E+05  0.3368973083E+03    1    6        20    1  0.8069671210E+00  0.1434904339E+00  0.1000000000E+01  0.9903483561E+04  0.1007174522E+05  0.3201789551E+03    1    6
        74         1        74    2  0.0000000000E+00  0.4790667079E+04         9    1  0.5000000000E+00  0.1666666667E+00  0.1000000000E+01  0.4250000000E+04  0.1008333333E+05  0.3368973083E+03    1    6        20    1  0.7825966909E+00  0.1453687705E+00  0.1000000000E+01  0.9891298345E+04  0.1007268439E+05  0.3201789551E+03    1    6
        75         1        75    2  0.0000000000E+00  0.4486941131E+04         9    1  0.8333333333E+00  0.1666666667E+00  0.1000000000E+01  0.4416666667E+04  0.1008333333E+05  0.3368973083E+03    1    6        20    1  0.7581761697E+00  0.1471464461E+00  0.1000000000E+01  0.9879088085E+04  0.1007357322E+05  0.3201789551E+03    1    6
        76         1        76    2  0.0000000000E+00  0.5111979791E+04         9    1  0.1666666667E+00  0.5000000000E+00  0.1000000000E+01  0.4083333333E+04  0.1025000000E+05  0.3368973083E+03    1    6        20    1  0.8069671210E+00  0.4860942603E+00  0.1000000000E+01  0.9903483561E+04  0.1024304713E+05  0.3201789551E+03    1    6
        77         1        77    2  0.0000000000E+00  0.4790667079E+04         9    1  0.5000000000E+00  0.5000000000E+00  0.1000000000E+01  0.4250000000E+04  0.1025000000E+05  0.3368973083E+03    1    6        20    1  0.7825966909E+00  0.4872212623E+00  0.1000000000E+01  0.9891298345E+04  0.1024361063E+05  0.3201789551E+03    1    6
        78         1        78    2  0.0000000000E+00  0.4486941131E+04         9    1  0.8333333333E+00  0.5000000000E+00  0.1000000000E+01  0.4416666667E+04  0.1025000000E+05  0.3368973083E+03    1    6        20    1  0.7581761697E+00  0.4882878676E+00  0.1000000000E+01  0.9879088085E+04  0.1024414393E+05  0.3201789551E+03    1    6
        79         1        79    2  0.0000000000E+00  0.5111979791E+04         9    1  0.1666666667E+00  0.8333333333E+00  0.1000000000E+01  0.4083333333E+04  0.1041666667E+05  0.3368973083E+03    1    6        20    1  0.8069671210E+00  0.8286980868E+00  0.1000000000E+01  0.9903483561E+04  0.1041434904E+05  0.3201789551E+03    1    6
        80         1        80    2  0.0000000000E+00  0.4790667079E+04         9    1  0.5000000000E+00  0.8333333333E+00  0.1000000000E+01  0.4250000000E+04  0.1041666667E+05  0.3368973083E+03    1    6        20    1  0.7825966909E+00  0.8290737541E+00  0.1000000000E+01  0.9891298345E+04  0.1041453688E+05  0.3201789551E+03    1    6
        81         1        81    2  0.0000000000E+00  0.4486941131E+04         9    1  0.8333333333E+00  0.8333333333E+00  0.1000000000E+01  0.4416666667E+04  0.1041666667E+05  0.3368973083E+03    1    6        20    1  0.7581761697E+00  0.8294292892E+00  0.1000000000E+01  0.9879088085E+04  0.1041471464E+05  0.3201789551E+03    1    6
        82         1        82    2  0.0000000000E+00  0.4199787634E+04        10    1  0.1666666667E+00  0.1666666667E+00  0.1000000000E+01  0.4583333333E+04  0.1008333333E+05  0.3362836914E+03    1    6        20    1  0.7337079559E+00  0.1488328178E+00  0.1000000000E+01  0.9866853978E+04  0.1007441641E+05  0.3201789551E+03    1    6
        83         1        83    2  0.0000000000E+00  0.3928594417E+04        10    1  0.5000000000E+00  0.1666666667E+00  0.1000000000E+01  0.4750000000E+04  0.1008333333E+05  0.3362836914E+03    1    6        20    1  0.7091941567E+00  0.1504300739E+00  0.1000000000E+01  0.9854597078E+04  0.1007521504E+05  0.3201789551E+03    1    6
        84         1        84    2  0.0000000000E+00  0.3671233293E+04        10    1  0.8333333333E+00  0.1666666667E+00  0.1000000000E+01  0.4916666667E+04  0.1008333333E+05  0.3362836914E+03    1    6        20    1  0.6846369672E+00  0.1519455952E+00  0.1000000000E+01  0.9842318484E+04  0.1007597280E+05  0.3201789551E+03    1    6
        85         1        85    2  0.0000000000E+00  0.4199787634E+04        10    1  0.1666666667E+00  0.5000000000E+00  0.1000000000E+01  0.4583333333E+04  0.1025000000E+05  0.3362836914E+03    1    6        20    1  0.7337079559E+00  0.4892996907E+00  0.1000000000E+01  0.9866853978E+04  0.1024464985E+05  0.3201789551E+03    1    6
        86         1        86    2  0.0000000000E+00  0.3928594417E+04        10    1  0.5000000000E+00  0.5000000000E+00  0.1000000000E+01  0.4750000000E+04  0.1025000000E+05  0.3362836914E+03    1    6        20    1  0.7091941567E+00  0.4902580444E+00  0.1000000000E+01  0.9854597078E+04  0.1024512902E+05  0.3201789551E+03    1    6
        87         1        87    2  0.0000000000E+00  0.3671233293E+04        10    1  0.8333333333E+00  0.5000000000E+00  0.1000000000E+01  0.4916666667E+04  0.1025000000E+05  0.3362836914E+03    1    6        20    1  0.6846369672E+00  0.4911673571E+00  0.1000000000E+01  0.9842318484E+04  0.1024558368E+05  0.3201789551E+03    1    6