MODPATH_ENDPOINT_FILE         7         0
    1        21        21        21   0.0000000000E+00
       0       0       4       0       0      17       0       0       0       0
         1
PG1             
END HEADER
         1         1         1    2  0.0000000000E+00  0.3067935414E+05         3    1  0.5000000000E+00  0.5000000000E+00  0.1000000000E+01  0.1250000000E+04  0.1025000000E+05  0.3389134216E+03    1    6        60    1  0.9765261116E+00  0.2869557005E+00  0.1000000000E+01  0.9988263056E+04  0.9143477850E+04  0.3201788635E+03    1    6
         2         1         2    2  0.0000000000E+00  0.3278692845E+05        23    1  0.5000000000E+00  0.5000000000E+00  0.1000000000E+01  0.1250000000E+04  0.9750000000E+04  0.3389111938E+03    1    6       160    1  0.9674898532E+00  0.2783984700E+00  0.1000000000E+01  0.9983744927E+04  0.6639199235E+04  0.3201783142E+03    1    6
         3         1         3    5  0.0000000000E+00  0.1656540075E+05        43    1  0.5000000000E+00  0.5000000000E+00  0.1000000000E+01  0.1250000000E+04  0.9250000000E+04  0.3389070435E+03    1    6      1050    3  0.1000000000E+01  0.7717174320E+00  0.1522652815E+00  0.5000000000E+04  0.5385858716E+04  0.3045305630E+02    2    2
         4         1         4    5  0.0000000000E+00  0.1207573055E+05        63    1  0.5000000000E+00  0.5000000000E+00  0.1000000000E+01  0.1250000000E+04  0.8750000000E+04  0.3389011841E+03    1    6      1050    3  0.8645348271E+00  0.1000000000E+01  0.2509263189E+00  0.4932267414E+04  0.5500000000E+04  0.5018526378E+02    2    4
         5         1         5    5  0.0000000000E+00  0.1015100006E+05        83    1  0.5000000000E+00  0.5000000000E+00  0.1000000000E+01  0.1250000000E+04  0.8250000000E+04  0.3388940430E+03    1    6      1050    3  0.6195011080E+00  0.1000000000E+01  0.3284641392E+00  0.4809750554E+04  0.5500000000E+04  0.6569282785E+02    2    4
         6         1         6    5  0.0000000000E+00  0.8894086303E+04       103    1  0.5000000000E+00  0.5000000000E+00  0.1000000000E+01  0.1250000000E+04  0.7750000000E+04  0.3388862000E+03    1    6      1050    3  0.4072989299E+00  0.1000000000E+01  0.3963216334E+00  0.4703649465E+04  0.5500000000E+04  0.7926432667E+02    2    4
         7         1         7    5  0.0000000000E+00  0.7948390805E+04       123    1  0.5000000000E+00  0.5000000000E+00  0.1000000000E+01  0.1250000000E+04  0.7250000000E+04  0.3388782349E+03    1    6      1050    3  0.2104476507E+00  0.1000000000E+01  0.4589202974E+00  0.4605223825E+04  0.5500000000E+04  0.9178405948E+02    2    4
         8         1         8    5  0.0000000000E+00  0.7274461595E+04       143    1  0.5000000000E+00  0.5000000000E+00  0.1000000000E+01  0.1250000000E+04  0.6750000000E+04  0.3388709717E+03    1    6      1050    3  0.1909061991E-01  0.1000000000E+01  0.5106194890E+00  0.4509545310E+04  0.5500000000E+04  0.1021238978E+03    2    4
         9         1         9    5  0.0000000000E+00  0.6741129345E+04       163    1  0.5000000000E+00  0.5000000000E+00  0.1000000000E+01  0.1250000000E+04  0.6250000000E+04  0.3388650818E+03    1    6      1050    3  0.0000000000E+00  0.8459041243E+00  0.5563136817E+00  0.4500000000E+04  0.5422952062E+04  0.1112627363E+03    2    1
        10         1        10    5  0.0000000000E+00  0.6419835534E+04       183    1  0.5000000000E+00  0.5000000000E+00  0.1000000000E+01  0.1250000000E+04  0.5750000000E+04  0.3388612366E+03    1    6      1050    3  0.0000000000E+00  0.6733686853E+00  0.5859664936E+00  0.4500000000E+04  0.5336684343E+04  0.1171932987E+03    2    1
        11         1        11    5  0.0000000000E+00  0.6267765650E+04       203    1  0.5000000000E+00  0.5000000000E+00  0.1000000000E+01  0.1250000000E+04  0.5250000000E+04  0.3388598938E+03    1    6      1050    3  0.0000000000E+00  0.5000399478E+00  0.6008915465E+00  0.4500000000E+04  0.5250019974E+04  0.1201783093E+03    2    1
        12         1        12    5  0.0000000000E+00  0.6419749178E+04       223    1  0.5000000000E+00  0.5000000000E+00  0.1000000000E+01  0.1250000000E+04  0.4750000000E+04  0.3388612671E+03    1    6      1050    3  0.0000000000E+00  0.3267132900E+00  0.5859708314E+00  0.4500000000E+04  0.5163356645E+04  0.1171941663E+03    2    1
        13         1        13    5  0.0000000000E+00  0.6740918461E+04       243    1  0.5000000000E+00  0.5000000000E+00  0.1000000000E+01  0.1250000000E+04  0.4250000000E+04  0.3388651428E+03    1    6      1050    3  0.0000000000E+00  0.1541840487E+00  0.5563256283E+00  0.4500000000E+04  0.5077092024E+04  0.1112651257E+03    2    1
        14         1        14    5  0.0000000000E+00  0.7274149136E+04       263    1  0.5000000000E+00  0.5000000000E+00  0.1000000000E+01  0.1250000000E+04  0.3750000000E+04  0.3388710938E+03    1    6      1050    3  0.1898195817E-01  0.0000000000E+00  0.5106337643E+00  0.4509490979E+04  0.5000000000E+04  0.1021267529E+03    2    3
        15         1        15    5  0.0000000000E+00  0.7947953424E+04       283    1  0.5000000000E+00  0.5000000000E+00  0.1000000000E+01  0.1250000000E+04  0.3250000000E+04  0.3388784180E+03    1    6      1050    3  0.2103263104E+00  0.0000000000E+00  0.4589350479E+00  0.4605163155E+04  0.5000000000E+04  0.9178700957E+02    2    3
        16         1        16    5  0.0000000000E+00  0.8893559794E+04       303    1  0.5000000000E+00  0.5000000000E+00  0.1000000000E+01  0.1250000000E+04  0.2750000000E+04  0.3388864136E+03    1    6      1050    3  0.4071628289E+00  0.0000000000E+00  0.3963297852E+00  0.4703581414E+04  0.5000000000E+04  0.7926595703E+02    2    3
        17         1        17    5  0.0000000000E+00  0.1015028900E+05       323    1  0.5000000000E+00  0.5000000000E+00  0.1000000000E+01  0.1250000000E+04  0.2250000000E+04  0.3388943176E+03    1    6      1050    3  0.6193464735E+00  0.0000000000E+00  0.3284689651E+00  0.4809673237E+04  0.5000000000E+04  0.6569379301E+02    2    3
        18         1        18    5  0.0000000000E+00  0.1207325636E+05       343    1  0.5000000000E+00  0.5000000000E+00  0.1000000000E+01  0.1250000000E+04  0.1750000000E+04  0.3389014893E+03    1    6      1050    3  0.8643485558E+00  0.0000000000E+00  0.2509635394E+00  0.4932174278E+04  0.5000000000E+04  0.5019270788E+02    2    3
        19         1        19    5  0.0000000000E+00  0.1656130262E+05       363    1  0.5000000000E+00  0.5000000000E+00  0.1000000000E+01  0.1250000000E+04  0.1250000000E+04  0.3389073486E+03    1    6      1050    3  0.1000000000E+01  0.2279990120E+00  0.1522913781E+00  0.5000000000E+04  0.5113999506E+04  0.3045827562E+02    2    2
        20         1        20    2  0.0000000000E+00  0.3278939546E+05       383    1  0.5000000000E+00  0.5000000000E+00  0.1000000000E+01  0.1250000000E+04  0.7500000000E+03  0.3389115295E+03    1    6       280    1  0.9675014399E+00  0.7236480490E+00  0.1000000000E+01  0.9983750720E+04  0.3861824025E+04  0.3201783142E+03    1    6
        21         1        21    2  0.0000000000E+00  0.3068123020E+05       403    1  0.5000000000E+00  0.5000000000E+00  0.1000000000E+01  0.1250000000E+04  0.2500000000E+03  0.3389136963E+03    1    6       380    1  0.9765365963E+00  0.7154349345E+00  0.1000000000E+01  0.9988268298E+04  0.1357717467E+04  0.3201788940E+03    1    6
