MODPATH_PATHLINE_FILE         7         0
    1   0.0000000000E+00
END HEADER
         1         1         1        55
         3  0.12500000E+04  0.10250000E+05  0.33891342E+03  0.00000000E+00  0.50000000E+00  0.50000000E+00  0.10000000E+01         1         1         1
         3  0.13991342E+04  0.10248893E+05  0.29179263E+03  0.10000000E+04  0.79826837E+00  0.49778607E+00  0.60373862E+00         1         1         1
         3  0.15000000E+04  0.10248208E+05  0.26544302E+03  0.16162732E+04  0.10000000E+01  0.49641681E+00  0.38215219E+00         1         1         1
         4  0.15666869E+04  0.10247737E+05  0.25007983E+03  0.20000000E+04  0.13337384E+00  0.49547340E+00  0.25331725E+00         1         1         1
         4  0.17185251E+04  0.10246735E+05  0.22000000E+03  0.28127901E+04  0.43705021E+00  0.49346928E+00  0.00000000E+00         1         1         1
       424  0.17185298E+04  0.10246735E+05  0.21341777E+03  0.30000000E+04  0.43705969E+00  0.49346910E+00  0.67088866E+00         2         1         1
       424  0.17185395E+04  0.10246734E+05  0.20000000E+03  0.33816493E+04  0.43707901E+00  0.49346873E+00  0.00000000E+00         2         1         1
       844  0.18648355E+04  0.10237582E+05  0.17940113E+03  0.40000000E+04  0.72967109E+00  0.47516484E+00  0.89700567E+00         3         1         1
       844  0.20000000E+04  0.10229419E+05  0.16333791E+03  0.45336422E+04  0.10000000E+01  0.45883758E+00  0.81668957E+00         3         1         1
       845  0.21249291E+04  0.10220853E+05  0.15077016E+03  0.50000000E+04  0.24985813E+00  0.44170582E+00  0.75385081E+00         3         1         1
       845  0.24143479E+04  0.10201560E+05  0.12698589E+03  0.60000000E+04  0.82869574E+00  0.40312021E+00  0.63492947E+00         3         1         1
       845  0.25000000E+04  0.10195986E+05  0.12109089E+03  0.62768779E+04  0.10000000E+01  0.39197293E+00  0.60545447E+00         3         1         1
       846  0.27344240E+04  0.10178467E+05  0.10736940E+03  0.70000000E+04  0.46884798E+00  0.35693476E+00  0.53684699E+00         3         1         1
       846  0.30000000E+04  0.10158789E+05  0.94515717E+02  0.77666709E+04  0.10000000E+01  0.31757878E+00  0.47257858E+00         3         1         1
       847  0.30843135E+04  0.10151690E+05  0.91062552E+02  0.80000000E+04  0.16862699E+00  0.30338090E+00  0.45531276E+00         3         1         1
       847  0.34620005E+04  0.10119554E+05  0.77636039E+02  0.90000000E+04  0.92400101E+00  0.23910871E+00  0.38818019E+00         3         1         1
       847  0.35000000E+04  0.10116291E+05  0.76446841E+02  0.90967692E+04  0.10000000E+01  0.23258284E+00  0.38223421E+00         3         1         1
       848  0.38646466E+04  0.10080900E+05  0.66695884E+02  0.10000000E+05  0.72929321E+00  0.16180062E+00  0.33347942E+00         3         1         1
       848  0.40000000E+04  0.10067405E+05  0.63505425E+02  0.10324468E+05  0.10000000E+01  0.13480985E+00  0.31752713E+00         3         1         1
       849  0.42878022E+04  0.10035876E+05  0.57746058E+02  0.11000000E+05  0.57560437E+00  0.71751147E-01  0.28873029E+00         3         1         1
       849  0.45000000E+04  0.10011700E+05  0.53916524E+02  0.11487573E+05  0.10000000E+01  0.23400939E-01  0.26958262E+00         3         1         1
       850  0.45980395E+04  0.10000000E+05  0.52398756E+02  0.11710296E+05  0.19607898E+00  0.00000000E+00  0.26199378E+00         3         1         1
       870  0.47263705E+04  0.99843486E+04  0.50484666E+02  0.12000000E+05  0.45274105E+00  0.96869712E+00  0.25242333E+00         3         1         1
       870  0.50000000E+04  0.99495196E+04  0.46662134E+02  0.12612964E+05  0.10000000E+01  0.89903914E+00  0.23331067E+00         3         1         1
       871  0.51738527E+04  0.99268683E+04  0.44658859E+02  0.13000000E+05  0.34770540E+00  0.85373658E+00  0.22329430E+00         3         1         1
       871  0.55000000E+04  0.98818580E+04  0.41139429E+02  0.13724018E+05  0.10000000E+01  0.76371598E+00  0.20569714E+00         3         1         1
       872  0.56244706E+04  0.98650138E+04  0.40071211E+02  0.14000000E+05  0.24894128E+00  0.73002762E+00  0.20035606E+00         3         1         1
       872  0.60000000E+04  0.98111325E+04  0.37005837E+02  0.14834828E+05  0.10000000E+01  0.62226499E+00  0.18502919E+00         3         1         1
       873  0.60740627E+04  0.98011287E+04  0.36557402E+02  0.15000000E+05  0.14812532E+00  0.60225744E+00  0.18278701E+00         3         1         1
       873  0.65000000E+04  0.97401413E+04  0.34062112E+02  0.15957788E+05  0.10000000E+01  0.48028256E+00  0.17031056E+00         3         1         1
       874  0.65186292E+04  0.97377146E+04  0.33992838E+02  0.16000000E+05  0.37258405E-01  0.47542924E+00  0.16996419E+00         3         1         1
       874  0.69536865E+04  0.96778957E+04  0.32392317E+02  0.17000000E+05  0.90737303E+00  0.35579136E+00  0.16196158E+00         3         1         1
       874  0.70000000E+04  0.96711539E+04  0.32223891E+02  0.17108092E+05  0.10000000E+01  0.34230774E+00  0.16111945E+00         3         1         1
       875  0.73739460E+04  0.96226671E+04  0.31715571E+02  0.18000000E+05  0.74789194E+00  0.24533426E+00  0.15857786E+00         3         1         1
       875  0.75000000E+04  0.96052198E+04  0.31541343E+02  0.18308997E+05  0.10000000E+01  0.21043954E+00  0.15770672E+00         3         1         1
       876  0.77731936E+04  0.95717883E+04  0.31943125E+02  0.19000000E+05  0.54638721E+00  0.14357654E+00  0.15971562E+00         3         1         1
       876  0.80000000E+04  0.95417391E+04  0.32296415E+02  0.19600462E+05  0.10000000E+01  0.83478283E-01  0.16148208E+00         3         1         1
       877  0.81446876E+04  0.95246480E+04  0.33098146E+02  0.20000000E+05  0.28937518E+00  0.49295911E-01  0.16549073E+00         3         1         1
       877  0.83389919E+04  0.95000000E+04  0.34264470E+02  0.20564278E+05  0.67798379E+00  0.00000000E+00  0.17132235E+00         3         1         1
       897  0.84783655E+04  0.94805681E+04  0.35189948E+02  0.21000000E+05  0.95673098E+00  0.96113610E+00  0.17594974E+00         3         1         1
       897  0.85000000E+04  0.94774432E+04  0.35339599E+02  0.21069379E+05  0.10000000E+01  0.95488632E+00  0.17669800E+00         3         1         1
       898  0.87705308E+04  0.94412729E+04  0.39244853E+02  0.22000000E+05  0.54106158E+00  0.88254575E+00  0.19622427E+00         3         1         1
       898  0.90000000E+04  0.94051808E+04  0.43439014E+02  0.22901513E+05  0.10000000E+01  0.81036170E+00  0.21719507E+00         3         1         1
       899  0.90232342E+04  0.94016547E+04  0.44191420E+02  0.23000000E+05  0.46468493E-01  0.80330949E+00  0.22095710E+00         3         1         1
       899  0.92347034E+04  0.93652991E+04  0.52609421E+02  0.24000000E+05  0.46940676E+00  0.73059824E+00  0.26304711E+00         3         1         1
       899  0.94074571E+04  0.93279169E+04  0.62630963E+02  0.25000000E+05  0.81491414E+00  0.65583382E+00  0.31315482E+00         3         1         1
       899  0.95000000E+04  0.93037307E+04  0.69933197E+02  0.25632472E+05  0.10000000E+01  0.60746130E+00  0.34966598E+00         3         1         1
       900  0.95479530E+04  0.92904664E+04  0.76629857E+02  0.26000000E+05  0.95905990E-01  0.58093273E+00  0.38314929E+00         3         1         1
       900  0.96564056E+04  0.92537364E+04  0.98278104E+02  0.27000000E+05  0.31281126E+00  0.50747278E+00  0.49139052E+00         3         1         1
       900  0.97388389E+04  0.92160521E+04  0.12604207E+03  0.28000000E+05  0.47767781E+00  0.43210417E+00  0.63021035E+00         3         1         1
       900  0.98014952E+04  0.91773887E+04  0.16164947E+03  0.29000000E+05  0.60299048E+00  0.35477731E+00  0.80824734E+00         3         1         1
       900  0.98430230E+04  0.91435115E+04  0.20000000E+03  0.29855606E+05  0.68604593E+00  0.28702305E+00  0.10000000E+01         3         1         1
       480  0.98430368E+04  0.91435114E+04  0.20718580E+03  0.30000000E+05  0.68607369E+00  0.28702275E+00  0.35929023E+00         2         1         1
       480  0.98430616E+04  0.91435111E+04  0.22000000E+03  0.30257459E+05  0.68612317E+00  0.28702224E+00  0.10000000E+01         2         1         1
        60  0.99882631E+04  0.91434779E+04  0.32017886E+03  0.30679354E+05  0.97652611E+00  0.28695570E+00  0.10000000E+01         1         1         1
         2         1         2        61
        23  0.12500000E+04  0.97500000E+04  0.33891119E+03  0.00000000E+00  0.50000000E+00  0.50000000E+00  0.10000000E+01         1         1         1
        23  0.13993543E+04  0.97468072E+04  0.29178666E+03  0.10000000E+04  0.79870861E+00  0.49361438E+00  0.60369979E+00         1         1         1
        23  0.15000000E+04  0.97448405E+04  0.26552346E+03  0.16140421E+04  0.10000000E+01  0.48968095E+00  0.38283575E+00         1         1         1
        24  0.15671757E+04  0.97434755E+04  0.25006355E+03  0.20000000E+04  0.13435134E+00  0.48695095E+00  0.25318525E+00         1         1         1
        24  0.17191013E+04  0.97405966E+04  0.22000000E+03  0.28119296E+04  0.43820263E+00  0.48119314E+00  0.00000000E+00         1         1         1
       444  0.17191061E+04  0.97405963E+04  0.21338368E+03  0.30000000E+04  0.43821220E+00  0.48119261E+00  0.66918384E+00         2         1         1
       444  0.17191158E+04  0.97405958E+04  0.20000000E+03  0.33804339E+04  0.43823156E+00  0.48119153E+00  0.00000000E+00         2         1         1
       864  0.18685232E+04  0.97134376E+04  0.17934935E+03  0.40000000E+04  0.73704633E+00  0.42687528E+00  0.89674676E+00         3         1         1
       864  0.20000000E+04  0.96903982E+04  0.16397743E+03  0.45094184E+04  0.10000000E+01  0.38079643E+00  0.81988717E+00         3         1         1
       865  0.21339991E+04  0.96636156E+04  0.15072164E+03  0.50000000E+04  0.26799826E+00  0.32723127E+00  0.75360821E+00         3         1         1
       865  0.24297470E+04  0.96062795E+04  0.12692671E+03  0.60000000E+04  0.85949403E+00  0.21255901E+00  0.63463356E+00         3         1         1
       865  0.25000000E+04  0.95929901E+04  0.12216136E+03  0.62227095E+04  0.10000000E+01  0.18598015E+00  0.61080681E+00         3         1         1
       866  0.27568969E+04  0.95367265E+04  0.10733284E+03  0.70000000E+04  0.51379371E+00  0.73452997E-01  0.53666420E+00         3         1         1
       866  0.29258263E+04  0.95000000E+04  0.99035209E+02  0.74832785E+04  0.85165269E+00  0.00000000E+00  0.49517605E+00         3         1         1
       886  0.30000000E+04  0.94844401E+04  0.95794444E+02  0.76827071E+04  0.10000000E+01  0.96888025E+00  0.47897222E+00         3         1         1
       887  0.31203543E+04  0.94553322E+04  0.91049289E+02  0.80000000E+04  0.24070850E+00  0.91066444E+00  0.45524645E+00         3         1         1
       887  0.35000000E+04  0.93620205E+04  0.78094828E+02  0.89585370E+04  0.10000000E+01  0.72404094E+00  0.39047414E+00         3         1         1
       888  0.35169748E+04  0.93572814E+04  0.77604998E+02  0.90000000E+04  0.33949529E-01  0.71456278E+00  0.38802499E+00         3         1         1
       888  0.39359639E+04  0.92363526E+04  0.66678460E+02  0.10000000E+05  0.87192788E+00  0.47270529E+00  0.33339230E+00         3         1         1
       888  0.40000000E+04  0.92171960E+04  0.65187690E+02  0.10149004E+05  0.10000000E+01  0.43439207E+00  0.32593845E+00         3         1         1
       889  0.43705492E+04  0.90919480E+04  0.57793856E+02  0.11000000E+05  0.74109837E+00  0.18389607E+00  0.28896928E+00         3         1         1
       889  0.45000000E+04  0.90457535E+04  0.55444051E+02  0.11293411E+05  0.10000000E+01  0.91506909E-01  0.27722025E+00         3         1         1
       890  0.46211536E+04  0.90000000E+04  0.53523022E+02  0.11566851E+05  0.24230710E+00  0.00000000E+00  0.26761511E+00         3         1         1
       910  0.48136663E+04  0.89239806E+04  0.50597626E+02  0.12000000E+05  0.62733261E+00  0.84796112E+00  0.25298813E+00         3         1         1
       910  0.50000000E+04  0.88453562E+04  0.47904280E+02  0.12421533E+05  0.10000000E+01  0.69071240E+00  0.23952140E+00         3         1         1
       911  0.52534980E+04  0.87334119E+04  0.44830318E+02  0.13000000E+05  0.50699604E+00  0.46682385E+00  0.22415159E+00         3         1         1
       911  0.55000000E+04  0.86143597E+04  0.41998073E+02  0.13569228E+05  0.10000000E+01  0.22871948E+00  0.20999037E+00         3         1         1
       912  0.56846023E+04  0.85271916E+04  0.40288094E+02  0.14000000E+05  0.36920457E+00  0.54383276E-01  0.20144047E+00         3         1         1
       912  0.57399935E+04  0.85000000E+04  0.39785753E+02  0.14130027E+05  0.47998701E+00  0.00000000E+00  0.19892877E+00         3         1         1
       932  0.60000000E+04  0.83551275E+04  0.37313909E+02  0.14787859E+05  0.10000000E+01  0.71025507E+00  0.18656955E+00         3         1         1
       933  0.60826619E+04  0.83131335E+04  0.36719509E+02  0.15000000E+05  0.16532375E+00  0.62626706E+00  0.18359755E+00         3         1         1
       933  0.64667567E+04  0.81028016E+04  0.34042628E+02  0.16000000E+05  0.93351341E+00  0.20560326E+00  0.17021314E+00         3         1         1
       933  0.65000000E+04  0.80833437E+04  0.33817446E+02  0.16087677E+05  0.10000000E+01  0.16668731E+00  0.16908723E+00         3         1         1
       934  0.66716527E+04  0.80000000E+04  0.33059321E+02  0.16542997E+05  0.34330542E+00  0.00000000E+00  0.16529660E+00         3         1         1
       954  0.68231248E+04  0.79138403E+04  0.32302424E+02  0.17000000E+05  0.64624960E+00  0.82768053E+00  0.16151212E+00         3         1         1
       954  0.70000000E+04  0.78097845E+04  0.31436864E+02  0.17535923E+05  0.10000000E+01  0.61956900E+00  0.15718432E+00         3         1         1
       955  0.71523225E+04  0.77381376E+04  0.31149396E+02  0.18000000E+05  0.30464493E+00  0.47627516E+00  0.15574698E+00         3         1         1
       955  0.74772500E+04  0.75799040E+04  0.30538860E+02  0.19000000E+05  0.95449992E+00  0.15980804E+00  0.15269430E+00         3         1         1
       955  0.75000000E+04  0.75685410E+04  0.30496250E+02  0.19070536E+05  0.10000000E+01  0.13708203E+00  0.15248125E+00         3         1         1
       956  0.76767831E+04  0.75000000E+04  0.30780171E+02  0.19624231E+05  0.35356611E+00  0.00000000E+00  0.15390085E+00         3         1         1
       976  0.77820865E+04  0.74532789E+04  0.30967556E+02  0.20000000E+05  0.56417302E+00  0.90655785E+00  0.15483778E+00         3         1         1
       976  0.80000000E+04  0.73560538E+04  0.31361919E+02  0.20783452E+05  0.10000000E+01  0.71210761E+00  0.15680960E+00         3         1         1
       977  0.80595945E+04  0.73354867E+04  0.31769403E+02  0.21000000E+05  0.11918895E+00  0.67097343E+00  0.15884702E+00         3         1         1
       977  0.83263333E+04  0.72409787E+04  0.33720892E+02  0.22000000E+05  0.65266656E+00  0.48195749E+00  0.16860446E+00         3         1         1
       977  0.85000000E+04  0.71771599E+04  0.35115751E+02  0.22679911E+05  0.10000000E+01  0.35431979E+00  0.17557876E+00         3         1         1
       978  0.85790424E+04  0.71535532E+04  0.36389326E+02  0.23000000E+05  0.15808486E+00  0.30710645E+00  0.18194663E+00         3         1         1
       978  0.88100490E+04  0.70802756E+04  0.40673428E+02  0.24000000E+05  0.62009794E+00  0.16055115E+00  0.20336714E+00         3         1         1
       978  0.90000000E+04  0.70145021E+04  0.44988600E+02  0.24905971E+05  0.10000000E+01  0.29004155E-01  0.22494300E+00         3         1         1
       979  0.90186774E+04  0.70088424E+04  0.45726898E+02  0.25000000E+05  0.37354735E-01  0.17684871E-01  0.22863449E+00         3         1         1
       979  0.90473250E+04  0.70000000E+04  0.46906164E+02  0.25147086E+05  0.94650095E-01  0.00000000E+00  0.23453082E+00         3         1         1
       999  0.91921961E+04  0.69492518E+04  0.54354292E+02  0.26000000E+05  0.38439218E+00  0.89850352E+00  0.27177146E+00         3         1         1
       999  0.93399998E+04  0.68909797E+04  0.64606371E+02  0.27000000E+05  0.67999950E+00  0.78195947E+00  0.32303186E+00         3         1         1
       999  0.94671683E+04  0.68340049E+04  0.76792154E+02  0.28000000E+05  0.93433657E+00  0.66800985E+00  0.38396077E+00         3         1         1
       999  0.95000000E+04  0.68180230E+04  0.80662874E+02  0.28284600E+05  0.10000000E+01  0.63604592E+00  0.40331437E+00         3         1         1
      1000  0.95745886E+04  0.67821193E+04  0.96263580E+02  0.29000000E+05  0.14917713E+00  0.56423858E+00  0.48131790E+00         3         1         1
      1000  0.96605804E+04  0.67328292E+04  0.12325322E+03  0.30000000E+05  0.32116081E+00  0.46565845E+00  0.61626609E+00         3         1         1
      1000  0.97291900E+04  0.66845651E+04  0.15781000E+03  0.31000000E+05  0.45838005E+00  0.36913010E+00  0.78905002E+00         3         1         1
      1000  0.97819029E+04  0.66392410E+04  0.20000000E+03  0.31958627E+05  0.56380576E+00  0.27848205E+00  0.10000000E+01         3         1         1
       580  0.97819084E+04  0.66392410E+04  0.20204509E+03  0.32000000E+05  0.56381675E+00  0.27848196E+00  0.10225457E+00         2         1         1
       580  0.97819566E+04  0.66392405E+04  0.22000000E+03  0.32363185E+05  0.56391324E+00  0.27848110E+00  0.10000000E+01         2         1         1
       160  0.99837449E+04  0.66391992E+04  0.32017831E+03  0.32786928E+05  0.96748985E+00  0.27839847E+00  0.10000000E+01         1         1         1
         3         1         3        39
        43  0.12500000E+04  0.92500000E+04  0.33890704E+03  0.00000000E+00  0.50000000E+00  0.50000000E+00  0.10000000E+01         1         1         1
        43  0.13997518E+04  0.92449809E+04  0.29177495E+03  0.10000000E+04  0.79950364E+00  0.48996171E+00  0.60362234E+00         1         1         1
        43  0.15000000E+04  0.92419108E+04  0.26566667E+03  0.16100145E+04  0.10000000E+01  0.48382150E+00  0.38405350E+00         1         1         1
        44  0.15680638E+04  0.92397414E+04  0.25003058E+03  0.20000000E+04  0.13612761E+00  0.47948289E+00  0.25291747E+00         1         1         1
        44  0.17201177E+04  0.92352246E+04  0.22000000E+03  0.28101814E+04  0.44023542E+00  0.47044913E+00  0.00000000E+00         1         1         1
       464  0.17201226E+04  0.92352241E+04  0.21331308E+03  0.30000000E+04  0.44024518E+00  0.47044826E+00  0.66565421E+00         2         1         1
       464  0.17201323E+04  0.92352233E+04  0.20000000E+03  0.33779129E+04  0.44026462E+00  0.47044652E+00  0.00000000E+00         2         1         1
       884  0.18760142E+04  0.91909334E+04  0.17924314E+03  0.40000000E+04  0.75202845E+00  0.38186686E+00  0.89621568E+00         3         1         1
       884  0.20000000E+04  0.91570727E+04  0.16521981E+03  0.44625105E+04  0.10000000E+01  0.31414549E+00  0.82609906E+00         3         1         1
       885  0.21527111E+04  0.91090613E+04  0.15062118E+03  0.50000000E+04  0.30542214E+00  0.21812254E+00  0.75310591E+00         3         1         1
       885  0.24617897E+04  0.90152903E+04  0.12680559E+03  0.60000000E+04  0.92357949E+00  0.30580522E-01  0.63402797E+00         3         1         1
       885  0.25000000E+04  0.90039882E+04  0.12429087E+03  0.61163809E+04  0.10000000E+01  0.79763587E-02  0.62145433E+00         3         1         1
       886  0.25113955E+04  0.90000000E+04  0.12357887E+03  0.61508166E+04  0.22790935E-01  0.00000000E+00  0.61789436E+00         3         1         1
       906  0.28202367E+04  0.88982922E+04  0.10720748E+03  0.70000000E+04  0.64047336E+00  0.79658443E+00  0.53603742E+00         3         1         1
       906  0.30000000E+04  0.88397163E+04  0.99174091E+02  0.74654185E+04  0.10000000E+01  0.67943261E+00  0.49587046E+00         3         1         1
       907  0.32145846E+04  0.87570375E+04  0.91008168E+02  0.80000000E+04  0.42916912E+00  0.51407492E+00  0.45504084E+00         3         1         1
       907  0.35000000E+04  0.86448878E+04  0.81536523E+02  0.86837103E+04  0.10000000E+01  0.28977555E+00  0.40768262E+00         3         1         1
       908  0.36356944E+04  0.85820904E+04  0.77697908E+02  0.90000000E+04  0.27138872E+00  0.16418081E+00  0.38848954E+00         3         1         1
       908  0.38078575E+04  0.85000000E+04  0.73141074E+02  0.93964105E+04  0.61571493E+00  0.00000000E+00  0.36570537E+00         3         1         1
       928  0.40000000E+04  0.84096232E+04  0.68630989E+02  0.98111019E+04  0.10000000E+01  0.81924631E+00  0.34315495E+00         3         1         1
       929  0.40877238E+04  0.83620157E+04  0.66797154E+02  0.10000000E+05  0.17544754E+00  0.72403140E+00  0.33398577E+00         3         1         1
       929  0.45000000E+04  0.81145986E+04  0.58731595E+02  0.10897511E+05  0.10000000E+01  0.22919720E+00  0.29365798E+00         3         1         1
       930  0.45465455E+04  0.80825847E+04  0.57948704E+02  0.11000000E+05  0.93090930E-01  0.16516944E+00  0.28974352E+00         3         1         1
       930  0.46619073E+04  0.80000000E+04  0.56037615E+02  0.11256116E+05  0.32381451E+00  0.00000000E+00  0.28018808E+00         3         1         1
       950  0.49857726E+04  0.77315478E+04  0.50774169E+02  0.12000000E+05  0.97154518E+00  0.46309567E+00  0.25387085E+00         3         1         1
       950  0.50000000E+04  0.77180780E+04  0.50545365E+02  0.12034062E+05  0.10000000E+01  0.43615603E+00  0.25272682E+00         3         1         1
       951  0.52241102E+04  0.75000000E+04  0.47379606E+02  0.12585235E+05  0.44822041E+00  0.00000000E+00  0.23689803E+00         3         1         1
       971  0.53646859E+04  0.73157259E+04  0.45088034E+02  0.13000000E+05  0.72937179E+00  0.63145189E+00  0.22544017E+00         3         1         1
       971  0.55000000E+04  0.71019383E+04  0.42842526E+02  0.13427404E+05  0.10000000E+01  0.20387669E+00  0.21421263E+00         3         1         1
       972  0.55720493E+04  0.70000000E+04  0.41830032E+02  0.13664950E+05  0.14409854E+00  0.00000000E+00  0.20915016E+00         3         1         1
       992  0.56318252E+04  0.68493748E+04  0.40411036E+02  0.14000000E+05  0.26365033E+00  0.69874969E+00  0.20205518E+00         3         1         1
       992  0.57558051E+04  0.65000000E+04  0.37541350E+02  0.14715114E+05  0.51161011E+00  0.00000000E+00  0.18770675E+00         3         1         1
      1012  0.57454788E+04  0.63520253E+04  0.36426212E+02  0.15000000E+05  0.49095769E+00  0.70405066E+00  0.18213106E+00         3         1         1
      1012  0.57205605E+04  0.60000000E+04  0.33948246E+02  0.15665595E+05  0.44112108E+00  0.00000000E+00  0.16974123E+00         3         1         1
      1032  0.55757453E+04  0.58322407E+04  0.32734236E+02  0.16000000E+05  0.15149060E+00  0.66448133E+00  0.16367118E+00         3         1         1
      1032  0.55000000E+04  0.57618153E+04  0.32187255E+02  0.16154742E+05  0.00000000E+00  0.52363054E+00  0.16093628E+00         3         1         1
      1031  0.53661029E+04  0.55000000E+04  0.31096097E+02  0.16414794E+05  0.73220582E+00  0.00000000E+00  0.15548049E+00         3         1         1
      1051  0.50000000E+04  0.53858587E+04  0.30453056E+02  0.16565401E+05  0.00000000E+00  0.77171743E+00  0.15226528E+00         3         1         1
      1050  0.50000000E+04  0.53858587E+04  0.30453056E+02  0.16565401E+05  0.10000000E+01  0.77171743E+00  0.15226528E+00         3         1         1
         4         1         4        32
        63  0.12500000E+04  0.87500000E+04  0.33890118E+03  0.00000000E+00  0.50000000E+00  0.50000000E+00  0.10000000E+01         1         1         1
        63  0.14003311E+04  0.87434959E+04  0.29175800E+03  0.10000000E+04  0.80066225E+00  0.48699177E+00  0.60350953E+00         1         1         1
        63  0.15000000E+04  0.87395582E+04  0.26587450E+03  0.16041778E+04  0.10000000E+01  0.47911638E+00  0.38582035E+00         1         1         1
        64  0.15693605E+04  0.87366931E+04  0.24998215E+03  0.20000000E+04  0.13872098E+00  0.47338625E+00  0.25252331E+00         1         1         1
        64  0.17215971E+04  0.87308372E+04  0.22000000E+03  0.28076043E+04  0.44319426E+00  0.46167433E+00  0.00000000E+00         1         1         1
       484  0.17216022E+04  0.87308366E+04  0.21320875E+03  0.30000000E+04  0.44320432E+00  0.46167315E+00  0.66043769E+00         2         1         1
       484  0.17216119E+04  0.87308354E+04  0.20000000E+03  0.33742033E+04  0.44322389E+00  0.46167085E+00  0.00000000E+00         2         1         1
       904  0.18877787E+04  0.86710417E+04  0.17908660E+03  0.40000000E+04  0.77555742E+00  0.34208345E+00  0.89543298E+00         3         1         1
       904  0.20000000E+04  0.86324093E+04  0.16702098E+03  0.43952031E+04  0.10000000E+01  0.26481856E+00  0.83510488E+00         3         1         1
       905  0.21824930E+04  0.85591153E+04  0.15047034E+03  0.50000000E+04  0.36498603E+00  0.11823067E+00  0.75235172E+00         3         1         1
       905  0.23342154E+04  0.85000000E+04  0.13868306E+03  0.54727802E+04  0.66843079E+00  0.00000000E+00  0.69341528E+00         3         1         1
       925  0.25000000E+04  0.84418213E+04  0.12820403E+03  0.59266426E+04  0.10000000E+01  0.88364268E+00  0.64102013E+00         3         1         1
       926  0.25276554E+04  0.84302094E+04  0.12663317E+03  0.60000000E+04  0.55310811E-01  0.86041885E+00  0.63316587E+00         3         1         1
       926  0.29249990E+04  0.82657463E+04  0.10704342E+03  0.70000000E+04  0.84999795E+00  0.53149251E+00  0.53521708E+00         3         1         1
       926  0.30000000E+04  0.82351756E+04  0.10388315E+03  0.71783163E+04  0.10000000E+01  0.47035116E+00  0.51941573E+00         3         1         1
       927  0.33576207E+04  0.80554430E+04  0.90965664E+02  0.80000000E+04  0.71524136E+00  0.11088591E+00  0.45482832E+00         3         1         1
       927  0.34657555E+04  0.80000000E+04  0.87498815E+02  0.82404500E+04  0.93151103E+00  0.00000000E+00  0.43749408E+00         3         1         1
       947  0.35000000E+04  0.79839427E+04  0.86527801E+02  0.83090274E+04  0.10000000E+01  0.96788546E+00  0.43263901E+00         3         1         1
       948  0.38461182E+04  0.77791542E+04  0.77747554E+02  0.90000000E+04  0.69223646E+00  0.55830848E+00  0.38873777E+00         3         1         1
       948  0.40000000E+04  0.76810906E+04  0.74140315E+02  0.93067934E+04  0.10000000E+01  0.36218127E+00  0.37070158E+00         3         1         1
       949  0.42237606E+04  0.75000000E+04  0.69434498E+02  0.97591847E+04  0.44752128E+00  0.00000000E+00  0.34717249E+00         3         1         1
       969  0.43509025E+04  0.73954792E+04  0.67017367E+02  0.10000000E+05  0.70180490E+00  0.79095849E+00  0.33508684E+00         3         1         1
       969  0.45000000E+04  0.72585349E+04  0.64192619E+02  0.10292683E+05  0.10000000E+01  0.51706978E+00  0.32096310E+00         3         1         1
       970  0.47113104E+04  0.70000000E+04  0.60454321E+02  0.10737308E+05  0.42262072E+00  0.00000000E+00  0.30227160E+00         3         1         1
       990  0.48250643E+04  0.68199345E+04  0.58296042E+02  0.11000000E+05  0.65012860E+00  0.63986908E+00  0.29148021E+00         3         1         1
       990  0.49649399E+04  0.65000000E+04  0.55314482E+02  0.11379360E+05  0.92987971E+00  0.00000000E+00  0.27657241E+00         3         1         1
      1010  0.50000000E+04  0.62187194E+04  0.53385294E+02  0.11626169E+05  0.10000000E+01  0.43743880E+00  0.26692647E+00         3         1         1
      1011  0.50270183E+04  0.60000000E+04  0.51830368E+02  0.11859263E+05  0.54036590E-01  0.00000000E+00  0.25915184E+00         3         1         1
      1031  0.50000000E+04  0.59515076E+04  0.51495516E+02  0.11908136E+05  0.00000000E+00  0.90301511E+00  0.25747758E+00         3         1         1
      1030  0.49573803E+04  0.57428608E+04  0.50773142E+02  0.12000000E+05  0.91476062E+00  0.48572152E+00  0.25386571E+00         3         1         1
      1030  0.49322674E+04  0.55000000E+04  0.50185264E+02  0.12075731E+05  0.86453483E+00  0.00000000E+00  0.25092632E+00         3         1         1
      1050  0.49322674E+04  0.55000000E+04  0.50185264E+02  0.12075731E+05  0.86453483E+00  0.10000000E+01  0.25092632E+00         3         1         1
         5         1         5        27
        83  0.12500000E+04  0.82500000E+04  0.33889404E+03  0.00000000E+00  0.50000000E+00  0.50000000E+00  0.10000000E+01         1         1         1
        83  0.14010850E+04  0.82424950E+04  0.29173673E+03  0.10000000E+04  0.80217003E+00  0.48499003E+00  0.60336693E+00         1         1         1
        83  0.15000000E+04  0.82380120E+04  0.26614448E+03  0.15966429E+04  0.10000000E+01  0.47602400E+00  0.38811432E+00         1         1         1
        84  0.15710510E+04  0.82346215E+04  0.24992021E+03  0.20000000E+04  0.14210192E+00  0.46924303E+00  0.25201848E+00         1         1         1
        84  0.17235347E+04  0.82278536E+04  0.22000000E+03  0.28042964E+04  0.44706934E+00  0.45570719E+00  0.00000000E+00         1         1         1